version 2
run DNM-0-20210616-17:28:58-2950
attr configname DNM
attr datetime 20210616-17:28:58
attr experiment DNM
attr inifile omnetpp.ini
attr iterationvars ""
attr iterationvarsf ""
attr measurement ""
attr network ParcelDeliveryNetwork
attr processid 2950
attr repetition 0
attr replication #0
attr resultdir results
attr runnumber 0
attr seedset 0
param *.numdrones 6
param *.ndst 6
param **.drone*.mobility.typename "\"DroneMobility\""
param **.drone[*].mobility.ndst 5
param **.drone[*].mobility.initFromDisplayString false
param **.drone[*].mobility.changeInterval "truncnormal(2s, 0.5s)"
param **.drone[*].mobility.angleDelta "normal(0deg, 30deg)"
param **.drone[*].mobility.speed "truncnormal(15mps, 5mps)"
param **.drone[*].mobility.initialX 300m
param **.drone[*].mobility.initialY 20m
param **.drone[*].mobility.initialZ 0m
param **.constraintAreaMinX 0m
param **.constraintAreaMinY 0m
param **.constraintAreaMinZ 0m
param **.constraintAreaMaxX 600m
param **.constraintAreaMaxY 400m
param **.constraintAreaMaxZ 0m
param **.updateInterval 0.1s

vector 0 ParcelDeliveryNetwork.drone[0] coordX:vector ETV
attr interpolationmode linear
attr source xCoord(mobilityPos(mobilityStateChanged))
attr title "coord X, vector"
vector 1 ParcelDeliveryNetwork.drone[0] coordY:vector ETV
attr interpolationmode linear
attr source yCoord(mobilityPos(mobilityStateChanged))
attr title "coord Y, vector"
vector 2 ParcelDeliveryNetwork.drone[0] coordZ:vector ETV
attr interpolationmode linear
attr source zCoord(mobilityPos(mobilityStateChanged))
attr title "coord Z, vector"
vector 3 ParcelDeliveryNetwork.drone[1] coordX:vector ETV
attr interpolationmode linear
attr source xCoord(mobilityPos(mobilityStateChanged))
attr title "coord X, vector"
vector 4 ParcelDeliveryNetwork.drone[1] coordY:vector ETV
attr interpolationmode linear
attr source yCoord(mobilityPos(mobilityStateChanged))
attr title "coord Y, vector"
vector 5 ParcelDeliveryNetwork.drone[1] coordZ:vector ETV
attr interpolationmode linear
attr source zCoord(mobilityPos(mobilityStateChanged))
attr title "coord Z, vector"
vector 6 ParcelDeliveryNetwork.drone[2] coordX:vector ETV
attr interpolationmode linear
attr source xCoord(mobilityPos(mobilityStateChanged))
attr title "coord X, vector"
vector 7 ParcelDeliveryNetwork.drone[2] coordY:vector ETV
attr interpolationmode linear
attr source yCoord(mobilityPos(mobilityStateChanged))
attr title "coord Y, vector"
vector 8 ParcelDeliveryNetwork.drone[2] coordZ:vector ETV
attr interpolationmode linear
attr source zCoord(mobilityPos(mobilityStateChanged))
attr title "coord Z, vector"
vector 9 ParcelDeliveryNetwork.drone[3] coordX:vector ETV
attr interpolationmode linear
attr source xCoord(mobilityPos(mobilityStateChanged))
attr title "coord X, vector"
vector 10 ParcelDeliveryNetwork.drone[3] coordY:vector ETV
attr interpolationmode linear
attr source yCoord(mobilityPos(mobilityStateChanged))
attr title "coord Y, vector"
vector 11 ParcelDeliveryNetwork.drone[3] coordZ:vector ETV
attr interpolationmode linear
attr source zCoord(mobilityPos(mobilityStateChanged))
attr title "coord Z, vector"
vector 12 ParcelDeliveryNetwork.drone[4] coordX:vector ETV
attr interpolationmode linear
attr source xCoord(mobilityPos(mobilityStateChanged))
attr title "coord X, vector"
vector 13 ParcelDeliveryNetwork.drone[4] coordY:vector ETV
attr interpolationmode linear
attr source yCoord(mobilityPos(mobilityStateChanged))
attr title "coord Y, vector"
vector 14 ParcelDeliveryNetwork.drone[4] coordZ:vector ETV
attr interpolationmode linear
attr source zCoord(mobilityPos(mobilityStateChanged))
attr title "coord Z, vector"
vector 15 ParcelDeliveryNetwork.drone[5] coordX:vector ETV
attr interpolationmode linear
attr source xCoord(mobilityPos(mobilityStateChanged))
attr title "coord X, vector"
vector 16 ParcelDeliveryNetwork.drone[5] coordY:vector ETV
attr interpolationmode linear
attr source yCoord(mobilityPos(mobilityStateChanged))
attr title "coord Y, vector"
vector 17 ParcelDeliveryNetwork.drone[5] coordZ:vector ETV
attr interpolationmode linear
attr source zCoord(mobilityPos(mobilityStateChanged))
attr title "coord Z, vector"
vector 18 ParcelDeliveryNetwork.gcs.wlan[0].radio radioMode:vector ETV
attr interpolationmode sample-hold
attr source radioModeChanged
attr title "Radio mode, vector"
vector 19 ParcelDeliveryNetwork.gcs.wlan[0].radio radioChannel:vector ETV
attr interpolationmode sample-hold
attr source radioChannelChanged
attr title "Radio channel, vector"
vector 20 ParcelDeliveryNetwork.gcs.wlan[0].radio receptionState:vector ETV
attr interpolationmode sample-hold
attr source receptionStateChanged
attr title "Radio reception state, vector"
vector 21 ParcelDeliveryNetwork.gcs.wlan[0].mac.dcf.recoveryProcedure contentionWindowChanged:vector ETV
attr interpolationmode sample-hold
attr title "contention window, vector"
0	0	0	300
0	1	0.1	309.42997323904
0	7	0.2	318.85994647808
0	13	0.3	328.28991971713
0	19	0.4	337.71989295617
0	25	0.5	347.14986619521
0	31	0.6	356.57983943425
0	37	0.7	366.00981267329
0	43	0.8	375.43978591233
0	49	0.9	384.86975915138
0	55	1	394.29973239042
0	61	1.1	403.72970562946
0	67	1.127851431333	406.35608815085
0	68	1.2	413.1596788685
0	73	1.227851431333	415.78606138989
0	74	1.3	422.58965210754
0	79	1.327851431333	425.21603462894
0	80	1.4	432.01962534659
0	85	1.427851431333	434.64600786798
0	86	1.490707044307	440.57327535066
0	87	1.5	441.44959858563
0	91	1.527851431333	444.07598110702
0	92	1.590707044307	450.0032485897
0	93	1.6	450.87957182467
0	97	1.627851431333	453.50595434606
0	98	1.690707044307	459.43322182875
0	99	1.7	460.30954506371
0	103	1.727851431333	462.9359275851
0	104	1.790707044307	468.86319506779
0	105	1.8	469.73951830275
0	109	1.827851431333	472.36590082415
0	110	1.890707044307	478.29316830683
0	111	1.9	479.1694915418
0	115	1.927851431333	481.79587406319
0	116	1.990707044307	487.72314154587
0	117	2	488.59946478084
0	121	2.027851431333	491.22584730223
0	122	2.090707044307	497.15311478491
0	123	2.1	498.02943801988
0	127	2.115570372836	499.49772001153
0	128	2.127851431333	500.65582054127
0	129	2.172189097535	504.83685059894
0	130	2.190707044307	506.58308802396
0	131	2.2	507.45941125892
0	133	2.215570372836	508.92769325058
0	134	2.227851431333	510.08579378031
0	135	2.272189097535	514.26682383798
0	136	2.290707044307	516.013061263
0	137	2.3	516.88938449796
0	139	2.315570372836	518.35766648962
0	140	2.327851431333	519.51576701936
0	141	2.372189097535	523.69679707702
0	142	2.390707044307	525.44303450204
0	143	2.4	526.319357737
0	145	2.415570372836	527.78763972866
0	146	2.427851431333	528.9457402584
0	147	2.472189097535	533.12677031606
0	148	2.490707044307	534.87300774108
0	149	2.5	535.74933097605
0	151	2.515570372836	537.2176129677
0	152	2.527851431333	538.37571349744
0	153	2.554939140705	540.93007724229
0	154	2.572189097535	542.5567435551
0	155	2.590707044307	544.30298098012
0	156	2.6	545.17930421509
0	157	2.615570372836	546.64758620674
0	158	2.627851431333	547.80568673648
0	159	2.654939140705	550.36005048133
0	160	2.672189097535	551.98671679414
0	161	2.690707044307	553.73295421916
0	162	2.7	554.60927745413
0	163	2.715570372836	556.07755944578
0	164	2.727851431333	557.23565997552
0	165	2.754939140705	559.79002372037
0	166	2.772189097535	561.41669003319
0	167	2.790707044307	563.16292745821
0	168	2.8	564.03925069317
0	169	2.815570372836	565.50753268483
0	170	2.827851431333	566.66563321456
0	171	2.854939140705	569.21999695941
0	172	2.872189097535	570.84666327223
0	173	2.890707044307	572.59290069725
0	174	2.9	573.46922393221
0	175	2.915570372836	574.93750592387
0	176	2.927851431333	576.09560645361
0	177	2.954939140705	578.64997019846
0	178	2.972189097535	580.27663651127
0	179	2.990707044307	582.02287393629
0	180	3	582.89919717126
0	181	3.001068961981	583
0	182	3.015570372836	580.99683021346
0	183	3.027851431333	579.30037146376
0	184	3.054939140705	575.55857823115
0	185	3.072189097535	573.17573474878
0	186	3.090707044307	570.6177359545
0	187	3.101068961981	569.18638002488
0	188	3.115570372836	567.18321023834
0	189	3.127851431333	565.48675148864
0	190	3.154939140705	561.74495825602
0	191	3.172189097535	559.36211477365
0	192	3.190707044307	556.80411597938
0	193	3.201068961981	555.37276004975
0	194	3.215570372836	553.36959026321
0	195	3.227851431333	551.67313151351
0	196	3.254939140705	547.9313382809
0	197	3.272189097535	545.54849479853
0	198	3.280481486003	544.4030157687
0	199	3.290707044307	542.99049600425
0	200	3.301068961981	541.55914007463
0	201	3.327851431333	537.85951153839
0	202	3.354939140705	534.11771830578
0	203	3.372189097535	531.73487482341
0	204	3.380481486003	530.58939579358
0	205	3.390707044307	529.17687602913
0	206	3.401068961981	527.74552009951
0	207	3.427851431333	524.04589156327
0	208	3.454939140705	520.30409833065
0	209	3.472189097535	517.92125484829
0	210	3.480481486003	516.77577581846
0	211	3.490707044307	515.36325605401
0	212	3.501068961981	513.93190012438
0	213	3.527851431333	510.23227158815
0	214	3.538007792423	508.82931046387
0	215	3.554939140705	506.49047835553
0	216	3.572189097535	504.10763487316
0	217	3.580481486003	502.96215584333
0	218	3.590707044307	501.54963607888
0	219	3.601068961981	500.11828014926
0	220	3.638007792423	495.01569048875
0	221	3.654939140705	492.67685838041
0	222	3.672189097535	490.29401489804
0	223	3.680481486003	489.14853586821
0	224	3.690707044307	487.73601610376
0	225	3.701068961981	486.30466017414
0	226	3.738007792423	481.20207051363
0	227	3.754939140705	478.86323840529
0	228	3.772189097535	476.48039492292
0	229	3.780481486003	475.33491589309
0	230	3.790707044307	473.92239612864
0	231	3.801068961981	472.49104019902
0	232	3.838007792423	467.3884505385
0	233	3.854939140705	465.04961843016
0	234	3.872189097535	462.66677494779
0	235	3.880481486003	461.52129591796
0	236	3.890707044307	460.10877615351
0	237	3.901068961981	458.67742022389
0	238	3.938007792423	453.57483056338
0	239	3.954939140705	451.23599845504
0	240	3.968805588386	449.32054006834
0	241	3.980481486003	447.70767594284
0	242	3.990707044307	446.29515617839
0	243	4.001068961981	444.86380024877
0	244	4.038007792423	439.76121058826
0	245	4.054939140705	437.42237847992
0	246	4.068805588386	435.50692009321
0	247	4.074385805496	434.73609010785
0	248	4.080481486003	433.89405596772
0	249	4.101068961981	431.05018027365
0	250	4.138007792423	425.94759061313
0	251	4.154939140705	423.60875850479
0	252	4.168805588386	421.69330011809
0	253	4.174385805496	420.92247013273
0	254	4.180481486003	420.08043599259
0	255	4.201068961981	417.23656029852
0	256	4.238007792423	412.13397063801
0	257	4.254939140705	409.79513852967
0	258	4.268805588386	407.87968014297
0	259	4.274385805496	407.1088501576
0	260	4.280481486003	406.26681601747
0	261	4.301068961981	403.4229403234
0	262	4.338007792423	398.32035066289
0	263	4.354939140705	395.98151855455
0	264	4.368805588386	394.06606016784
0	265	4.374385805496	393.29523018248
0	266	4.380481486003	392.45319604235
0	267	4.401068961981	389.60932034828
0	268	4.438007792423	384.50673068776
0	269	4.454939140705	382.16789857942
0	270	4.468805588386	380.25244019272
0	271	4.474385805496	379.48161020736
0	272	4.480481486003	378.63957606722
0	273	4.494202664544	376.74418460746
0	274	4.501068961981	375.79570037315
0	275	4.503207772412	375.50025322823
0	276	4.538007792423	370.69311071264
0	277	4.568805588386	366.4388202176
0	278	4.574385805496	365.66799023224
0	279	4.594202664544	362.93056463234
0	280	4.601068961981	361.98208039803
0	281	4.603207772412	361.6866332531
0	282	4.638007792423	356.87949073752
0	283	4.668805588386	352.62520024247
0	284	4.674385805496	351.85437025711
0	285	4.694202664544	349.11694465722
0	286	4.701068961981	348.16846042291
0	287	4.703207772412	347.87301327798
0	288	4.738007792423	343.06587076239
0	289	4.768805588386	338.81158026735
0	290	4.774385805496	338.04075028199
0	291	4.794202664544	335.30332468209
0	292	4.801068961981	334.35484044778
0	293	4.803207772412	334.05939330286
0	294	4.838007792423	329.25225078727
0	295	4.868805588386	324.99796029223
0	296	4.874385805496	324.22713030687
0	297	4.894202664544	321.48970470697
0	298	4.901068961981	320.54122047266
0	299	4.903207772412	320.24577332773
0	300	4.938007792423	315.43863081215
0	301	4.968805588386	311.18434031711
0	302	4.974385805496	310.41351033174
0	303	4.994202664544	307.67608473185
0	304	5.001068961981	306.72760049754
0	305	5.003207772412	306.43215335261
0	306	5.038007792423	301.62501083702
0	307	5.049771622903	300
0	308	5.068805588386	300
0	309	5.074385805496	300
0	310	5.094202664544	300
0	311	5.103207772412	300
0	312	5.138007792423	300
0	313	5.149771622903	300
0	314	5.168805588386	300
0	315	5.174385805496	300
0	316	5.194202664544	300
0	317	5.203207772412	300
0	318	5.220485709614	300
0	319	5.249771622903	300
0	320	5.268805588386	300
1	0	0	20
1	1	0.1	22.199216373769
1	7	0.2	24.398432747539
1	13	0.3	26.597649121308
1	19	0.4	28.796865495078
1	25	0.5	30.996081868847
1	31	0.6	33.195298242617
1	37	0.7	35.394514616386
1	43	0.8	37.593730990156
1	49	0.9	39.792947363925
1	55	1	41.992163737695
1	61	1.1	44.191380111464
1	67	1.127851431333	44.803893349669
1	68	1.2	46.390596485234
1	73	1.227851431333	47.003109723438
1	74	1.3	48.589812859003
1	79	1.327851431333	49.202326097208
1	80	1.4	50.789029232773
1	85	1.427851431333	51.401542470977
1	86	1.490707044307	52.783873403335
1	87	1.5	52.988245606542
1	91	1.527851431333	53.600758844747
1	92	1.590707044307	54.983089777104
1	93	1.6	55.187461980312
1	97	1.627851431333	55.799975218516
1	98	1.690707044307	57.182306150874
1	99	1.7	57.386678354081
1	103	1.727851431333	57.999191592286
1	104	1.790707044307	59.381522524643
1	105	1.8	59.585894727851
1	109	1.827851431333	60.198407966055
1	110	1.890707044307	61.580738898413
1	111	1.9	61.78511110162
1	115	1.927851431333	62.397624339825
1	116	1.990707044307	63.779955272182
1	117	2	63.98432747539
1	121	2.027851431333	64.596840713594
1	122	2.090707044307	65.979171645952
1	123	2.1	66.183543849159
1	127	2.115570372836	66.525970038025
1	128	2.127851431333	66.796057087364
1	129	2.172189097535	67.771138302225
1	130	2.190707044307	68.178388019721
1	131	2.2	68.382760222929
1	133	2.215570372836	68.725186411795
1	134	2.227851431333	68.995273461133
1	135	2.272189097535	69.970354675995
1	136	2.290707044307	70.377604393491
1	137	2.3	70.581976596698
1	139	2.315570372836	70.924402785564
1	140	2.327851431333	71.194489834903
1	141	2.372189097535	72.169571049764
1	142	2.390707044307	72.57682076726
1	143	2.4	72.781192970468
1	145	2.415570372836	73.123619159334
1	146	2.427851431333	73.393706208672
1	147	2.472189097535	74.368787423534
1	148	2.490707044307	74.776037141029
1	149	2.5	74.980409344237
1	151	2.515570372836	75.322835533103
1	152	2.527851431333	75.592922582442
1	153	2.554939140705	76.18863992223
1	154	2.572189097535	76.568003797303
1	155	2.590707044307	76.975253514799
1	156	2.6	77.179625718007
1	157	2.615570372836	77.522051906873
1	158	2.627851431333	77.792138956211
1	159	2.654939140705	78.387856295999
1	160	2.672189097535	78.767220171073
1	161	2.690707044307	79.174469888568
1	162	2.7	79.378842091776
1	163	2.715570372836	79.721268280642
1	164	2.727851431333	79.991355329981
1	165	2.754939140705	80.587072669769
1	166	2.772189097535	80.966436544842
1	167	2.790707044307	81.373686262338
1	168	2.8	81.578058465546
1	169	2.815570372836	81.920484654412
1	170	2.827851431333	82.19057170375
1	171	2.854939140705	82.786289043538
1	172	2.872189097535	83.165652918612
1	173	2.890707044307	83.572902636107
1	174	2.9	83.777274839315
1	175	2.915570372836	84.119701028181
1	176	2.927851431333	84.389788077519
1	177	2.954939140705	84.985505417308
1	178	2.972189097535	85.364869292381
1	179	2.990707044307	85.772119009877
1	180	3	85.976491213084
1	181	3.001068961981	86
1	182	3.015570372836	85.532829661089
1	183	3.027851431333	85.137189104623
1	184	3.054939140705	84.264544746487
1	185	3.072189097535	83.708828598655
1	186	3.090707044307	83.112263508823
1	187	3.101068961981	82.778449051738
1	188	3.115570372836	82.311278712827
1	189	3.127851431333	81.915638156361
1	190	3.154939140705	81.042993798225
1	191	3.172189097535	80.487277650393
1	192	3.190707044307	79.890712560561
1	193	3.201068961981	79.556898103476
1	194	3.215570372836	79.089727764566
1	195	3.227851431333	78.694087208099
1	196	3.254939140705	77.821442849963
1	197	3.272189097535	77.265726702131
1	198	3.280481486003	76.998583182807
1	199	3.290707044307	76.669161612299
1	200	3.301068961981	76.335347155214
1	201	3.327851431333	75.472536259837
1	202	3.354939140705	74.599891901701
1	203	3.372189097535	74.044175753869
1	204	3.380481486003	73.777032234545
1	205	3.390707044307	73.447610664037
1	206	3.401068961981	73.113796206952
1	207	3.427851431333	72.250985311575
1	208	3.454939140705	71.378340953439
1	209	3.472189097535	70.822624805607
1	210	3.480481486003	70.555481286283
1	211	3.490707044307	70.226059715775
1	212	3.501068961981	69.89224525869
1	213	3.527851431333	69.029434363313
1	214	3.538007792423	68.702242016309
1	215	3.554939140705	68.156790005177
1	216	3.572189097535	67.601073857345
1	217	3.580481486003	67.333930338021
1	218	3.590707044307	67.004508767513
1	219	3.601068961981	66.670694310428
1	220	3.638007792423	65.480691068047
1	221	3.654939140705	64.935239056915
1	222	3.672189097535	64.379522909083
1	223	3.680481486003	64.112379389759
1	224	3.690707044307	63.782957819251
1	225	3.701068961981	63.449143362167
1	226	3.738007792423	62.259140119785
1	227	3.754939140705	61.713688108653
1	228	3.772189097535	61.157971960821
1	229	3.780481486003	60.890828441497
1	230	3.790707044307	60.561406870989
1	231	3.801068961981	60.227592413905
1	232	3.838007792423	59.037589171523
1	233	3.854939140705	58.492137160391
1	234	3.872189097535	57.93642101256
1	235	3.880481486003	57.669277493235
1	236	3.890707044307	57.339855922728
1	237	3.901068961981	57.006041465643
1	238	3.938007792423	55.816038223262
1	239	3.954939140705	55.270586212129
1	240	3.968805588386	54.823871535372
1	241	3.980481486003	54.447726544973
1	242	3.990707044307	54.118304974466
1	243	4.001068961981	53.784490517381
1	244	4.038007792423	52.594487275
1	245	4.054939140705	52.049035263867
1	246	4.068805588386	51.60232058711
1	247	4.074385805496	51.422551049888
1	248	4.080481486003	51.226175596711
1	249	4.101068961981	50.562939569119
1	250	4.138007792423	49.372936326738
1	251	4.154939140705	48.827484315605
1	252	4.168805588386	48.380769638848
1	253	4.174385805496	48.201000101626
1	254	4.180481486003	48.004624648449
1	255	4.201068961981	47.341388620857
1	256	4.238007792423	46.151385378476
1	257	4.254939140705	45.605933367343
1	258	4.268805588386	45.159218690586
1	259	4.274385805496	44.979449153364
1	260	4.280481486003	44.783073700187
1	261	4.301068961981	44.119837672595
1	262	4.338007792423	42.929834430214
1	263	4.354939140705	42.384382419082
1	264	4.368805588386	41.937667742324
1	265	4.374385805496	41.757898205102
1	266	4.380481486003	41.561522751925
1	267	4.401068961981	40.898286724333
1	268	4.438007792423	39.708283481952
1	269	4.454939140705	39.16283147082
1	270	4.468805588386	38.716116794062
1	271	4.474385805496	38.53634725684
1	272	4.480481486003	38.339971803664
1	273	4.494202664544	37.897937046263
1	274	4.501068961981	37.676735776071
1	275	4.503207772412	37.60783290835
1	276	4.538007792423	36.48673253369
1	277	4.568805588386	35.4945658458
1	278	4.574385805496	35.314796308578
1	279	4.594202664544	34.676386098001
1	280	4.601068961981	34.455184827809
1	281	4.603207772412	34.386281960088
1	282	4.638007792423	33.265181585428
1	283	4.668805588386	32.273014897538
1	284	4.674385805496	32.093245360316
1	285	4.694202664544	31.454835149739
1	286	4.701068961981	31.233633879547
1	287	4.703207772412	31.164731011826
1	288	4.738007792423	30.043630637166
1	289	4.768805588386	29.051463949276
1	290	4.774385805496	28.871694412054
1	291	4.794202664544	28.233284201477
1	292	4.801068961981	28.012082931285
1	293	4.803207772412	27.943180063564
1	294	4.838007792423	26.822079688904
1	295	4.868805588386	25.829913001014
1	296	4.874385805496	25.650143463792
1	297	4.894202664544	25.011733253216
1	298	4.901068961981	24.790531983023
1	299	4.903207772412	24.721629115302
1	300	4.938007792423	23.600528740642
1	301	4.968805588386	22.608362052752
1	302	4.974385805496	22.42859251553
1	303	4.994202664544	21.790182304954
1	304	5.001068961981	21.568981034761
1	305	5.003207772412	21.50007816704
1	306	5.038007792423	20.37897779238
1	307	5.049771622903	20
1	308	5.068805588386	20
1	309	5.074385805496	20
1	310	5.094202664544	20
1	311	5.103207772412	20
1	312	5.138007792423	20
1	313	5.149771622903	20
1	314	5.168805588386	20
1	315	5.174385805496	20
1	316	5.194202664544	20
1	317	5.203207772412	20
1	318	5.220485709614	20
1	319	5.249771622903	20
1	320	5.268805588386	20
2	0	0	0
2	1	0.1	0
2	7	0.2	0
2	13	0.3	0
2	19	0.4	0
2	25	0.5	0
2	31	0.6	0
2	37	0.7	0
2	43	0.8	0
2	49	0.9	0
2	55	1	0
2	61	1.1	0
2	67	1.127851431333	0
2	68	1.2	0
2	73	1.227851431333	0
2	74	1.3	0
2	79	1.327851431333	0
2	80	1.4	0
2	85	1.427851431333	0
2	86	1.490707044307	0
2	87	1.5	0
2	91	1.527851431333	0
2	92	1.590707044307	0
2	93	1.6	0
2	97	1.627851431333	0
2	98	1.690707044307	0
2	99	1.7	0
2	103	1.727851431333	0
2	104	1.790707044307	0
2	105	1.8	0
2	109	1.827851431333	0
2	110	1.890707044307	0
2	111	1.9	0
2	115	1.927851431333	0
2	116	1.990707044307	0
2	117	2	0
2	121	2.027851431333	0
2	122	2.090707044307	0
2	123	2.1	0
2	127	2.115570372836	0
2	128	2.127851431333	0
2	129	2.172189097535	0
2	130	2.190707044307	0
2	131	2.2	0
2	133	2.215570372836	0
2	134	2.227851431333	0
2	135	2.272189097535	0
2	136	2.290707044307	0
2	137	2.3	0
2	139	2.315570372836	0
2	140	2.327851431333	0
2	141	2.372189097535	0
2	142	2.390707044307	0
2	143	2.4	0
2	145	2.415570372836	0
2	146	2.427851431333	0
2	147	2.472189097535	0
2	148	2.490707044307	0
2	149	2.5	0
2	151	2.515570372836	0
2	152	2.527851431333	0
2	153	2.554939140705	0
2	154	2.572189097535	0
2	155	2.590707044307	0
2	156	2.6	0
2	157	2.615570372836	0
2	158	2.627851431333	0
2	159	2.654939140705	0
2	160	2.672189097535	0
2	161	2.690707044307	0
2	162	2.7	0
2	163	2.715570372836	0
2	164	2.727851431333	0
2	165	2.754939140705	0
2	166	2.772189097535	0
2	167	2.790707044307	0
2	168	2.8	0
2	169	2.815570372836	0
2	170	2.827851431333	0
2	171	2.854939140705	0
2	172	2.872189097535	0
2	173	2.890707044307	0
2	174	2.9	0
2	175	2.915570372836	0
2	176	2.927851431333	0
2	177	2.954939140705	0
2	178	2.972189097535	0
2	179	2.990707044307	0
2	180	3	0
2	181	3.001068961981	0
2	182	3.015570372836	0
2	183	3.027851431333	0
2	184	3.054939140705	0
2	185	3.072189097535	0
2	186	3.090707044307	0
2	187	3.101068961981	0
2	188	3.115570372836	0
2	189	3.127851431333	0
2	190	3.154939140705	0
2	191	3.172189097535	0
2	192	3.190707044307	0
2	193	3.201068961981	0
2	194	3.215570372836	0
2	195	3.227851431333	0
2	196	3.254939140705	0
2	197	3.272189097535	0
2	198	3.280481486003	0
2	199	3.290707044307	0
2	200	3.301068961981	0
2	201	3.327851431333	0
2	202	3.354939140705	0
2	203	3.372189097535	0
2	204	3.380481486003	0
2	205	3.390707044307	0
2	206	3.401068961981	0
2	207	3.427851431333	0
2	208	3.454939140705	0
2	209	3.472189097535	0
2	210	3.480481486003	0
2	211	3.490707044307	0
2	212	3.501068961981	0
2	213	3.527851431333	0
2	214	3.538007792423	0
2	215	3.554939140705	0
2	216	3.572189097535	0
2	217	3.580481486003	0
2	218	3.590707044307	0
2	219	3.601068961981	0
2	220	3.638007792423	0
2	221	3.654939140705	0
2	222	3.672189097535	0
2	223	3.680481486003	0
2	224	3.690707044307	0
2	225	3.701068961981	0
2	226	3.738007792423	0
2	227	3.754939140705	0
2	228	3.772189097535	0
2	229	3.780481486003	0
2	230	3.790707044307	0
2	231	3.801068961981	0
2	232	3.838007792423	0
2	233	3.854939140705	0
2	234	3.872189097535	0
2	235	3.880481486003	0
2	236	3.890707044307	0
2	237	3.901068961981	0
2	238	3.938007792423	0
2	239	3.954939140705	0
2	240	3.968805588386	0
2	241	3.980481486003	0
2	242	3.990707044307	0
2	243	4.001068961981	0
2	244	4.038007792423	0
2	245	4.054939140705	0
2	246	4.068805588386	0
2	247	4.074385805496	0
2	248	4.080481486003	0
2	249	4.101068961981	0
2	250	4.138007792423	0
2	251	4.154939140705	0
2	252	4.168805588386	0
2	253	4.174385805496	0
2	254	4.180481486003	0
2	255	4.201068961981	0
2	256	4.238007792423	0
2	257	4.254939140705	0
2	258	4.268805588386	0
2	259	4.274385805496	0
2	260	4.280481486003	0
2	261	4.301068961981	0
2	262	4.338007792423	0
2	263	4.354939140705	0
2	264	4.368805588386	0
2	265	4.374385805496	0
2	266	4.380481486003	0
2	267	4.401068961981	0
2	268	4.438007792423	0
2	269	4.454939140705	0
2	270	4.468805588386	0
2	271	4.474385805496	0
2	272	4.480481486003	0
2	273	4.494202664544	0
2	274	4.501068961981	0
2	275	4.503207772412	0
2	276	4.538007792423	0
2	277	4.568805588386	0
2	278	4.574385805496	0
2	279	4.594202664544	0
2	280	4.601068961981	0
2	281	4.603207772412	0
2	282	4.638007792423	0
2	283	4.668805588386	0
2	284	4.674385805496	0
2	285	4.694202664544	0
2	286	4.701068961981	0
2	287	4.703207772412	0
2	288	4.738007792423	0
2	289	4.768805588386	0
2	290	4.774385805496	0
2	291	4.794202664544	0
2	292	4.801068961981	0
2	293	4.803207772412	0
2	294	4.838007792423	0
2	295	4.868805588386	0
2	296	4.874385805496	0
2	297	4.894202664544	0
2	298	4.901068961981	0
2	299	4.903207772412	0
2	300	4.938007792423	0
2	301	4.968805588386	0
2	302	4.974385805496	0
2	303	4.994202664544	0
2	304	5.001068961981	0
2	305	5.003207772412	0
2	306	5.038007792423	0
2	307	5.049771622903	0
2	308	5.068805588386	0
2	309	5.074385805496	0
2	310	5.094202664544	0
2	311	5.103207772412	0
2	312	5.138007792423	0
2	313	5.149771622903	0
2	314	5.168805588386	0
2	315	5.174385805496	0
2	316	5.194202664544	0
2	317	5.203207772412	0
2	318	5.220485709614	0
2	319	5.249771622903	0
2	320	5.268805588386	0
3	0	0	300
3	1	0.1	294.33750955939
3	7	0.2	288.67501911877
3	13	0.3	283.01252867816
3	19	0.4	277.35003823754
3	25	0.5	271.68754779693
3	31	0.6	266.02505735631
3	37	0.7	260.3625669157
3	43	0.8	254.70007647508
3	49	0.9	249.03758603447
3	55	1	243.37509559385
3	61	1.1	237.71260515324
3	67	1.127851431333	236.13552051643
3	68	1.2	232.05011471262
3	73	1.227851431333	230.47303007581
3	74	1.3	226.38762427201
3	79	1.327851431333	224.8105396352
3	80	1.4	220.72513383139
3	85	1.427851431333	219.14804919458
3	86	1.490707044307	215.58885611854
3	87	1.5	215.06264339078
3	91	1.527851431333	213.48555875397
3	92	1.590707044307	209.92636567793
3	93	1.6	209.40015295016
3	97	1.627851431333	207.82306831335
3	98	1.690707044307	204.26387523731
3	99	1.7	203.73766250955
3	103	1.727851431333	202.16057787274
3	104	1.790707044307	198.6013847967
3	105	1.8	198.07517206893
3	109	1.827851431333	196.49808743212
3	110	1.890707044307	192.93889435608
3	111	1.9	192.41268162832
3	115	1.927851431333	190.83559699151
3	116	1.990707044307	187.27640391547
3	117	2	186.7501911877
3	121	2.027851431333	185.17310655089
3	122	2.090707044307	181.61391347485
3	123	2.1	181.08770074709
3	127	2.115570372836	180.20602987368
3	128	2.127851431333	179.51061611028
3	129	2.172189097535	177
3	130	2.190707044307	178.26777610278
3	131	2.2	178.90399065166
3	133	2.215570372836	179.96996987905
3	134	2.227851431333	180.81075599162
3	135	2.272189097535	183.84620232678
3	136	2.290707044307	185.11397842956
3	137	2.3	185.75019297844
3	139	2.315570372836	186.81617220583
3	140	2.327851431333	187.6569583184
3	141	2.372189097535	190.69240465357
3	142	2.390707044307	191.96018075634
3	143	2.4	192.59639530522
3	145	2.415570372836	193.66237453261
3	146	2.427851431333	194.50316064519
3	147	2.472189097535	197.53860698035
3	148	2.490707044307	198.80638308312
3	149	2.5	199.44259763201
3	151	2.515570372836	200.50857685939
3	152	2.527851431333	201.34936297197
3	153	2.554939140705	203.20384236127
3	154	2.572189097535	204.38480930713
3	155	2.590707044307	205.65258540991
3	156	2.6	206.28879995879
3	157	2.615570372836	207.35477918618
3	158	2.627851431333	208.19556529875
3	159	2.654939140705	210.05004468805
3	160	2.672189097535	211.23101163391
3	161	2.690707044307	212.49878773669
3	162	2.7	213.13500228557
3	163	2.715570372836	214.20098151296
3	164	2.727851431333	215.04176762553
3	165	2.754939140705	216.89624701483
3	166	2.772189097535	218.0772139607
3	167	2.790707044307	219.34499006347
3	168	2.8	219.98120461235
3	169	2.815570372836	221.04718383974
3	170	2.827851431333	221.88796995232
3	171	2.854939140705	223.74244934161
3	172	2.872189097535	224.92341628748
3	173	2.890707044307	226.19119239025
3	174	2.9	226.82740693914
3	175	2.915570372836	227.89338616652
3	176	2.927851431333	228.7341722791
3	177	2.954939140705	230.5886516684
3	178	2.972189097535	231.76961861426
3	179	2.990707044307	233.03739471704
3	180	3	233.67360926592
3	181	3.001068961981	233.74679256593
3	182	3.015570372836	234.73958849331
3	183	3.027851431333	235.58037460588
3	184	3.054939140705	237.43485399518
3	185	3.072189097535	238.61582094104
3	186	3.090707044307	239.88359704382
3	187	3.101068961981	240.59299489272
3	188	3.115570372836	241.58579082009
3	189	3.127851431333	242.42657693266
3	190	3.154939140705	244.28105632196
3	191	3.172189097535	245.46202326783
3	192	3.190707044307	246.7297993706
3	193	3.201068961981	247.4391972195
3	194	3.215570372836	248.43199314687
3	195	3.227851431333	249.27277925945
3	196	3.254939140705	251.12725864874
3	197	3.272189097535	252.30822559461
3	198	3.280481486003	252.87593928685
3	199	3.290707044307	253.57600169738
3	200	3.301068961981	254.28539954628
3	201	3.327851431333	256.11898158623
3	202	3.354939140705	257.97346097553
3	203	3.372189097535	259.15442792139
3	204	3.380481486003	259.72214161363
3	205	3.390707044307	260.42220402417
3	206	3.401068961981	261.13160187306
3	207	3.427851431333	262.96518391301
3	208	3.454939140705	264.81966330231
3	209	3.472189097535	266.00063024817
3	210	3.480481486003	266.56834394042
3	211	3.490707044307	267.26840635095
3	212	3.501068961981	267.97780419985
3	213	3.527851431333	269.81138623979
3	214	3.538007792423	270.50671126905
3	215	3.554939140705	271.66586562909
3	216	3.572189097535	272.84683257496
3	217	3.580481486003	273.4145462672
3	218	3.590707044307	274.11460867773
3	219	3.601068961981	274.82400652663
3	220	3.638007792423	277.35291359584
3	221	3.654939140705	278.51206795587
3	222	3.672189097535	279.69303490174
3	223	3.680481486003	280.26074859398
3	224	3.690707044307	280.96081100452
3	225	3.701068961981	281.67020885341
3	226	3.738007792423	284.19911592262
3	227	3.754939140705	285.35827028266
3	228	3.772189097535	286.53923722852
3	229	3.780481486003	287.10695092076
3	230	3.790707044307	287.8070133313
3	231	3.801068961981	288.51641118019
3	232	3.838007792423	291.0453182494
3	233	3.854939140705	292.20447260944
3	234	3.872189097535	293.3854395553
3	235	3.880481486003	293.95315324755
3	236	3.890707044307	294.65321565808
3	237	3.901068961981	295.36261350698
3	238	3.938007792423	297.89152057618
3	239	3.954939140705	299.05067493622
3	240	3.968805588386	300
3	241	3.980481486003	300
3	242	3.990707044307	300
3	243	4.001068961981	300
3	244	4.038007792423	300
3	245	4.054939140705	300
3	246	4.068805588386	300
3	247	4.074385805496	300
3	248	4.080481486003	300
3	249	4.101068961981	300
3	250	4.138007792423	300
3	251	4.154939140705	300
3	252	4.168805588386	300
3	253	4.174385805496	300
3	254	4.180481486003	300
3	255	4.201068961981	300
3	256	4.238007792423	300
3	257	4.254939140705	300
3	258	4.268805588386	300
3	259	4.274385805496	300
3	260	4.280481486003	300
3	261	4.301068961981	300
3	262	4.338007792423	300
3	263	4.354939140705	300
3	264	4.368805588386	300
3	265	4.374385805496	300
3	266	4.380481486003	300
3	267	4.401068961981	300
3	268	4.438007792423	300
3	269	4.454939140705	300
3	270	4.468805588386	300
3	271	4.474385805496	300
3	272	4.480481486003	300
3	273	4.494202664544	300
3	274	4.501068961981	300
3	275	4.503207772412	300
3	276	4.538007792423	300
3	277	4.568805588386	300
3	278	4.574385805496	300
3	279	4.594202664544	300
3	280	4.601068961981	300
3	281	4.603207772412	300
3	282	4.638007792423	300
3	283	4.668805588386	300
3	284	4.674385805496	300
3	285	4.694202664544	300
3	286	4.701068961981	300
3	287	4.703207772412	300
3	288	4.738007792423	300
3	289	4.768805588386	300
3	290	4.774385805496	300
3	291	4.794202664544	300
3	292	4.801068961981	300
3	293	4.803207772412	300
3	294	4.838007792423	300
3	295	4.868805588386	300
3	296	4.874385805496	300
3	297	4.894202664544	300
3	298	4.901068961981	300
3	299	4.903207772412	300
3	300	4.938007792423	300
3	301	4.968805588386	300
3	302	4.974385805496	300
3	303	4.994202664544	300
3	304	5.001068961981	300
3	305	5.003207772412	300
3	306	5.038007792423	300
3	307	5.049771622903	300
3	308	5.068805588386	300
3	309	5.074385805496	300
3	310	5.094202664544	300
3	311	5.103207772412	300
3	312	5.138007792423	300
3	313	5.149771622903	300
3	314	5.168805588386	300
3	315	5.174385805496	300
3	316	5.194202664544	300
3	317	5.203207772412	300
3	318	5.220485709614	300
3	319	5.249771622903	300
3	320	5.268805588386	300
4	0	0	20
4	1	0.1	24.373468226491
4	7	0.2	28.746936452982
4	13	0.3	33.120404679474
4	19	0.4	37.493872905965
4	25	0.5	41.867341132456
4	31	0.6	46.240809358947
4	37	0.7	50.614277585439
4	43	0.8	54.98774581193
4	49	0.9	59.361214038421
4	55	1	63.734682264912
4	61	1.1	68.108150491404
4	67	1.127851431333	69.326223991375
4	68	1.2	72.481618717895
4	73	1.227851431333	73.699692217867
4	74	1.3	76.855086944386
4	79	1.327851431333	78.073160444358
4	80	1.4	81.228555170877
4	85	1.427851431333	82.446628670849
4	86	1.490707044307	85.195598932833
4	87	1.5	85.602023397369
4	91	1.527851431333	86.82009689734
4	92	1.590707044307	89.569067159325
4	93	1.6	89.97549162386
4	97	1.627851431333	91.193565123832
4	98	1.690707044307	93.942535385816
4	99	1.7	94.348959850351
4	103	1.727851431333	95.567033350323
4	104	1.790707044307	98.316003612307
4	105	1.8	98.722428076842
4	109	1.827851431333	99.940501576814
4	110	1.890707044307	102.6894718388
4	111	1.9	103.09589630333
4	115	1.927851431333	104.31396980331
4	116	1.990707044307	107.06294006529
4	117	2	107.46936452982
4	121	2.027851431333	108.6874380298
4	122	2.090707044307	111.43640829178
4	123	2.1	111.84283275632
4	127	2.115570372836	112.52379806504
4	128	2.127851431333	113.06090625629
4	129	2.172189097535	115
4	130	2.190707044307	114.02082333525
4	131	2.2	113.52943811457
4	133	2.215570372836	112.70612082513
4	134	2.227851431333	112.0567331772
4	135	2.272189097535	109.71228275574
4	136	2.290707044307	108.73310609099
4	137	2.3	108.24172087031
4	139	2.315570372836	107.41840358086
4	140	2.327851431333	106.76901593294
4	141	2.372189097535	104.42456551147
4	142	2.390707044307	103.44538884673
4	143	2.4	102.95400362605
4	145	2.415570372836	102.1306863366
4	146	2.427851431333	101.48129868868
4	147	2.472189097535	99.136848267211
4	148	2.490707044307	98.157671602465
4	149	2.5	97.666286381784
4	151	2.515570372836	96.842969092339
4	152	2.527851431333	96.193581444415
4	153	2.554939140705	94.761259964876
4	154	2.572189097535	93.849131022948
4	155	2.590707044307	92.869954358202
4	156	2.6	92.378569137521
4	157	2.615570372836	91.555251848076
4	158	2.627851431333	90.905864200152
4	159	2.654939140705	89.473542720613
4	160	2.672189097535	88.561413778685
4	161	2.690707044307	87.582237113939
4	162	2.7	87.090851893258
4	163	2.715570372836	86.267534603813
4	164	2.727851431333	85.618146955889
4	165	2.754939140705	84.18582547635
4	166	2.772189097535	83.273696534422
4	167	2.790707044307	82.294519869676
4	168	2.8	81.803134648995
4	169	2.815570372836	80.97981735955
4	170	2.827851431333	80.330429711626
4	171	2.854939140705	78.898108232087
4	172	2.872189097535	77.985979290159
4	173	2.890707044307	77.006802625413
4	174	2.9	76.515417404732
4	175	2.915570372836	75.692100115287
4	176	2.927851431333	75.042712467363
4	177	2.954939140705	73.610390987824
4	178	2.972189097535	72.698262045896
4	179	2.990707044307	71.71908538115
4	180	3	71.22770016047
4	181	3.001068961981	71.171176473466
4	182	3.015570372836	70.404382871024
4	183	3.027851431333	69.7549952231
4	184	3.054939140705	68.322673743561
4	185	3.072189097535	67.410544801634
4	186	3.090707044307	66.431368136887
4	187	3.101068961981	65.883459229203
4	188	3.115570372836	65.116665626761
4	189	3.127851431333	64.467277978838
4	190	3.154939140705	63.034956499298
4	191	3.172189097535	62.122827557371
4	192	3.190707044307	61.143650892624
4	193	3.201068961981	60.59574198494
4	194	3.215570372836	59.828948382498
4	195	3.227851431333	59.179560734575
4	196	3.254939140705	57.747239255035
4	197	3.272189097535	56.835110313108
4	198	3.280481486003	56.396632258124
4	199	3.290707044307	55.855933648361
4	200	3.301068961981	55.308024740677
4	201	3.327851431333	53.891843490312
4	202	3.354939140705	52.459522010773
4	203	3.372189097535	51.547393068845
4	204	3.380481486003	51.108915013861
4	205	3.390707044307	50.568216404098
4	206	3.401068961981	50.020307496414
4	207	3.427851431333	48.604126246049
4	208	3.454939140705	47.17180476651
4	209	3.472189097535	46.259675824582
4	210	3.480481486003	45.821197769598
4	211	3.490707044307	45.280499159835
4	212	3.501068961981	44.732590252151
4	213	3.527851431333	43.316409001786
4	214	3.538007792423	42.77936934504
4	215	3.554939140705	41.884087522247
4	216	3.572189097535	40.971958580319
4	217	3.580481486003	40.533480525335
4	218	3.590707044307	39.992781915572
4	219	3.601068961981	39.444873007888
4	220	3.638007792423	37.491652100777
4	221	3.654939140705	36.596370277984
4	222	3.672189097535	35.684241336056
4	223	3.680481486003	35.245763281072
4	224	3.690707044307	34.705064671309
4	225	3.701068961981	34.157155763625
4	226	3.738007792423	32.203934856514
4	227	3.754939140705	31.308653033721
4	228	3.772189097535	30.396524091793
4	229	3.780481486003	29.958046036809
4	230	3.790707044307	29.417347427047
4	231	3.801068961981	28.869438519362
4	232	3.838007792423	26.916217612251
4	233	3.854939140705	26.020935789458
4	234	3.872189097535	25.10880684753
4	235	3.880481486003	24.670328792546
4	236	3.890707044307	24.129630182784
4	237	3.901068961981	23.581721275099
4	238	3.938007792423	21.628500367988
4	239	3.954939140705	20.733218545195
4	240	3.968805588386	20
4	241	3.980481486003	20
4	242	3.990707044307	20
4	243	4.001068961981	20
4	244	4.038007792423	20
4	245	4.054939140705	20
4	246	4.068805588386	20
4	247	4.074385805496	20
4	248	4.080481486003	20
4	249	4.101068961981	20
4	250	4.138007792423	20
4	251	4.154939140705	20
4	252	4.168805588386	20
4	253	4.174385805496	20
4	254	4.180481486003	20
4	255	4.201068961981	20
4	256	4.238007792423	20
4	257	4.254939140705	20
4	258	4.268805588386	20
4	259	4.274385805496	20
4	260	4.280481486003	20
4	261	4.301068961981	20
4	262	4.338007792423	20
4	263	4.354939140705	20
4	264	4.368805588386	20
4	265	4.374385805496	20
4	266	4.380481486003	20
4	267	4.401068961981	20
4	268	4.438007792423	20
4	269	4.454939140705	20
4	270	4.468805588386	20
4	271	4.474385805496	20
4	272	4.480481486003	20
4	273	4.494202664544	20
4	274	4.501068961981	20
4	275	4.503207772412	20
4	276	4.538007792423	20
4	277	4.568805588386	20
4	278	4.574385805496	20
4	279	4.594202664544	20
4	280	4.601068961981	20
4	281	4.603207772412	20
4	282	4.638007792423	20
4	283	4.668805588386	20
4	284	4.674385805496	20
4	285	4.694202664544	20
4	286	4.701068961981	20
4	287	4.703207772412	20
4	288	4.738007792423	20
4	289	4.768805588386	20
4	290	4.774385805496	20
4	291	4.794202664544	20
4	292	4.801068961981	20
4	293	4.803207772412	20
4	294	4.838007792423	20
4	295	4.868805588386	20
4	296	4.874385805496	20
4	297	4.894202664544	20
4	298	4.901068961981	20
4	299	4.903207772412	20
4	300	4.938007792423	20
4	301	4.968805588386	20
4	302	4.974385805496	20
4	303	4.994202664544	20
4	304	5.001068961981	20
4	305	5.003207772412	20
4	306	5.038007792423	20
4	307	5.049771622903	20
4	308	5.068805588386	20
4	309	5.074385805496	20
4	310	5.094202664544	20
4	311	5.103207772412	20
4	312	5.138007792423	20
4	313	5.149771622903	20
4	314	5.168805588386	20
4	315	5.174385805496	20
4	316	5.194202664544	20
4	317	5.203207772412	20
4	318	5.220485709614	20
4	319	5.249771622903	20
4	320	5.268805588386	20
5	0	0	0
5	1	0.1	0
5	7	0.2	0
5	13	0.3	0
5	19	0.4	0
5	25	0.5	0
5	31	0.6	0
5	37	0.7	0
5	43	0.8	0
5	49	0.9	0
5	55	1	0
5	61	1.1	0
5	67	1.127851431333	0
5	68	1.2	0
5	73	1.227851431333	0
5	74	1.3	0
5	79	1.327851431333	0
5	80	1.4	0
5	85	1.427851431333	0
5	86	1.490707044307	0
5	87	1.5	0
5	91	1.527851431333	0
5	92	1.590707044307	0
5	93	1.6	0
5	97	1.627851431333	0
5	98	1.690707044307	0
5	99	1.7	0
5	103	1.727851431333	0
5	104	1.790707044307	0
5	105	1.8	0
5	109	1.827851431333	0
5	110	1.890707044307	0
5	111	1.9	0
5	115	1.927851431333	0
5	116	1.990707044307	0
5	117	2	0
5	121	2.027851431333	0
5	122	2.090707044307	0
5	123	2.1	0
5	127	2.115570372836	0
5	128	2.127851431333	0
5	129	2.172189097535	0
5	130	2.190707044307	0
5	131	2.2	0
5	133	2.215570372836	0
5	134	2.227851431333	0
5	135	2.272189097535	0
5	136	2.290707044307	0
5	137	2.3	0
5	139	2.315570372836	0
5	140	2.327851431333	0
5	141	2.372189097535	0
5	142	2.390707044307	0
5	143	2.4	0
5	145	2.415570372836	0
5	146	2.427851431333	0
5	147	2.472189097535	0
5	148	2.490707044307	0
5	149	2.5	0
5	151	2.515570372836	0
5	152	2.527851431333	0
5	153	2.554939140705	0
5	154	2.572189097535	0
5	155	2.590707044307	0
5	156	2.6	0
5	157	2.615570372836	0
5	158	2.627851431333	0
5	159	2.654939140705	0
5	160	2.672189097535	0
5	161	2.690707044307	0
5	162	2.7	0
5	163	2.715570372836	0
5	164	2.727851431333	0
5	165	2.754939140705	0
5	166	2.772189097535	0
5	167	2.790707044307	0
5	168	2.8	0
5	169	2.815570372836	0
5	170	2.827851431333	0
5	171	2.854939140705	0
5	172	2.872189097535	0
5	173	2.890707044307	0
5	174	2.9	0
5	175	2.915570372836	0
5	176	2.927851431333	0
5	177	2.954939140705	0
5	178	2.972189097535	0
5	179	2.990707044307	0
5	180	3	0
5	181	3.001068961981	0
5	182	3.015570372836	0
5	183	3.027851431333	0
5	184	3.054939140705	0
5	185	3.072189097535	0
5	186	3.090707044307	0
5	187	3.101068961981	0
5	188	3.115570372836	0
5	189	3.127851431333	0
5	190	3.154939140705	0
5	191	3.172189097535	0
5	192	3.190707044307	0
5	193	3.201068961981	0
5	194	3.215570372836	0
5	195	3.227851431333	0
5	196	3.254939140705	0
5	197	3.272189097535	0
5	198	3.280481486003	0
5	199	3.290707044307	0
5	200	3.301068961981	0
5	201	3.327851431333	0
5	202	3.354939140705	0
5	203	3.372189097535	0
5	204	3.380481486003	0
5	205	3.390707044307	0
5	206	3.401068961981	0
5	207	3.427851431333	0
5	208	3.454939140705	0
5	209	3.472189097535	0
5	210	3.480481486003	0
5	211	3.490707044307	0
5	212	3.501068961981	0
5	213	3.527851431333	0
5	214	3.538007792423	0
5	215	3.554939140705	0
5	216	3.572189097535	0
5	217	3.580481486003	0
5	218	3.590707044307	0
5	219	3.601068961981	0
5	220	3.638007792423	0
5	221	3.654939140705	0
5	222	3.672189097535	0
5	223	3.680481486003	0
5	224	3.690707044307	0
5	225	3.701068961981	0
5	226	3.738007792423	0
5	227	3.754939140705	0
5	228	3.772189097535	0
5	229	3.780481486003	0
5	230	3.790707044307	0
5	231	3.801068961981	0
5	232	3.838007792423	0
5	233	3.854939140705	0
5	234	3.872189097535	0
5	235	3.880481486003	0
5	236	3.890707044307	0
5	237	3.901068961981	0
5	238	3.938007792423	0
5	239	3.954939140705	0
5	240	3.968805588386	0
5	241	3.980481486003	0
5	242	3.990707044307	0
5	243	4.001068961981	0
5	244	4.038007792423	0
5	245	4.054939140705	0
5	246	4.068805588386	0
5	247	4.074385805496	0
5	248	4.080481486003	0
5	249	4.101068961981	0
5	250	4.138007792423	0
5	251	4.154939140705	0
5	252	4.168805588386	0
5	253	4.174385805496	0
5	254	4.180481486003	0
5	255	4.201068961981	0
5	256	4.238007792423	0
5	257	4.254939140705	0
5	258	4.268805588386	0
5	259	4.274385805496	0
5	260	4.280481486003	0
5	261	4.301068961981	0
5	262	4.338007792423	0
5	263	4.354939140705	0
5	264	4.368805588386	0
5	265	4.374385805496	0
5	266	4.380481486003	0
5	267	4.401068961981	0
5	268	4.438007792423	0
5	269	4.454939140705	0
5	270	4.468805588386	0
5	271	4.474385805496	0
5	272	4.480481486003	0
5	273	4.494202664544	0
5	274	4.501068961981	0
5	275	4.503207772412	0
5	276	4.538007792423	0
5	277	4.568805588386	0
5	278	4.574385805496	0
5	279	4.594202664544	0
5	280	4.601068961981	0
5	281	4.603207772412	0
5	282	4.638007792423	0
5	283	4.668805588386	0
5	284	4.674385805496	0
5	285	4.694202664544	0
5	286	4.701068961981	0
5	287	4.703207772412	0
5	288	4.738007792423	0
5	289	4.768805588386	0
5	290	4.774385805496	0
5	291	4.794202664544	0
5	292	4.801068961981	0
5	293	4.803207772412	0
5	294	4.838007792423	0
5	295	4.868805588386	0
5	296	4.874385805496	0
5	297	4.894202664544	0
5	298	4.901068961981	0
5	299	4.903207772412	0
5	300	4.938007792423	0
5	301	4.968805588386	0
5	302	4.974385805496	0
5	303	4.994202664544	0
5	304	5.001068961981	0
5	305	5.003207772412	0
5	306	5.038007792423	0
5	307	5.049771622903	0
5	308	5.068805588386	0
5	309	5.074385805496	0
5	310	5.094202664544	0
5	311	5.103207772412	0
5	312	5.138007792423	0
5	313	5.149771622903	0
5	314	5.168805588386	0
5	315	5.174385805496	0
5	316	5.194202664544	0
5	317	5.203207772412	0
5	318	5.220485709614	0
5	319	5.249771622903	0
5	320	5.268805588386	0
6	0	0	300
6	1	0.1	325.97859894133
6	7	0.2	351.95719788265
6	13	0.3	377.93579682398
6	19	0.4	403.9143957653
6	25	0.5	429.89299470663
6	31	0.6	455.87159364795
6	37	0.7	481.85019258928
6	43	0.8	507.8287915306
6	49	0.9	533.80739047193
6	55	1	559.78598941326
6	61	1.1	585.76458835458
6	67	1.127851431333	593
6	68	1.2	584.22897959622
6	73	1.227851431333	580.84311239178
6	74	1.3	572.072091988
6	79	1.327851431333	568.68622478357
6	80	1.4	559.91520437978
6	85	1.427851431333	556.52933717535
6	86	1.490707044307	548.88805095064
6	87	1.5	547.75831677157
6	91	1.527851431333	544.37244956713
6	92	1.590707044307	536.73116334243
6	93	1.6	535.60142916335
6	97	1.627851431333	532.21556195892
6	98	1.690707044307	524.57427573421
6	99	1.7	523.44454155513
6	103	1.727851431333	520.0586743507
6	104	1.790707044307	512.41738812599
6	105	1.8	511.28765394691
6	109	1.827851431333	507.90178674248
6	110	1.890707044307	500.26050051778
6	111	1.9	499.1307663387
6	115	1.927851431333	495.74489913427
6	116	1.990707044307	488.10361290956
6	117	2	486.97387873048
6	121	2.027851431333	483.58801152605
6	122	2.090707044307	475.94672530134
6	123	2.1	474.81699112226
6	127	2.115570372836	472.92411839641
6	128	2.127851431333	471.43112391783
6	129	2.172189097535	466.04104366955
6	130	2.190707044307	463.78983769313
6	131	2.2	462.66010351405
6	133	2.215570372836	460.76723078819
6	134	2.227851431333	459.27423630961
6	135	2.272189097535	453.88415606133
6	136	2.290707044307	451.63295008491
6	137	2.3	450.50321590583
6	139	2.315570372836	448.61034317998
6	140	2.327851431333	447.1173487014
6	141	2.372189097535	441.72726845311
6	142	2.390707044307	439.47606247669
6	143	2.4	438.34632829761
6	145	2.415570372836	436.45345557176
6	146	2.427851431333	434.96046109318
6	147	2.472189097535	429.5703808449
6	148	2.490707044307	427.31917486848
6	149	2.5	426.1894406894
6	151	2.515570372836	424.29656796354
6	152	2.527851431333	422.80357348496
6	153	2.554939140705	419.51055110097
6	154	2.572189097535	417.41349323668
6	155	2.590707044307	415.16228726026
6	156	2.6	414.03255308118
6	157	2.615570372836	412.13968035533
6	158	2.627851431333	410.64668587675
6	159	2.654939140705	407.35366349275
6	160	2.672189097535	405.25660562846
6	161	2.690707044307	403.00539965204
6	162	2.7	401.87566547296
6	163	2.715570372836	399.98279274711
6	164	2.727851431333	398.48979826853
6	165	2.754939140705	395.19677588454
6	166	2.772189097535	393.09971802025
6	167	2.790707044307	390.84851204383
6	168	2.8	389.71877786475
6	169	2.815570372836	387.82590513889
6	170	2.827851431333	386.33291066031
6	171	2.854939140705	383.03988827632
6	172	2.872189097535	380.94283041203
6	173	2.890707044307	378.69162443561
6	174	2.9	377.56189025653
6	175	2.915570372836	375.66901753068
6	176	2.927851431333	374.1760230521
6	177	2.954939140705	370.8830006681
6	178	2.972189097535	368.78594280381
6	179	2.990707044307	366.53473682739
6	180	3	365.40500264831
6	181	3.001068961981	365.27505014171
6	182	3.015570372836	363.51212992246
6	183	3.027851431333	362.01913544388
6	184	3.054939140705	358.72611305989
6	185	3.072189097535	356.6290551956
6	186	3.090707044307	354.37784921918
6	187	3.101068961981	353.11816253349
6	188	3.115570372836	351.35524231424
6	189	3.127851431333	349.86224783566
6	190	3.154939140705	346.56922545167
6	191	3.172189097535	344.47216758738
6	192	3.190707044307	342.22096161096
6	193	3.201068961981	340.96127492527
6	194	3.215570372836	339.19835470603
6	195	3.227851431333	337.70536022745
6	196	3.254939140705	334.41233784345
6	197	3.272189097535	332.31527997916
6	198	3.280481486003	331.30718363307
6	199	3.290707044307	330.06407400274
6	200	3.301068961981	328.80438731706
6	201	3.327851431333	325.54847261923
6	202	3.354939140705	322.25545023524
6	203	3.372189097535	320.15839237095
6	204	3.380481486003	319.15029602485
6	205	3.390707044307	317.90718639452
6	206	3.401068961981	316.64749970884
6	207	3.427851431333	313.39158501101
6	208	3.454939140705	310.09856262702
6	209	3.472189097535	308.00150476273
6	210	3.480481486003	306.99340841664
6	211	3.490707044307	305.75029878631
6	212	3.501068961981	304.49061210062
6	213	3.527851431333	301.2346974028
6	214	3.538007792423	300
6	215	3.554939140705	300
6	216	3.572189097535	300
6	217	3.580481486003	300
6	218	3.590707044307	300
6	219	3.601068961981	300
6	220	3.638007792423	300
6	221	3.654939140705	300
6	222	3.672189097535	300
6	223	3.680481486003	300
6	224	3.690707044307	300
6	225	3.701068961981	300
6	226	3.738007792423	300
6	227	3.754939140705	300
6	228	3.772189097535	300
6	229	3.780481486003	300
6	230	3.790707044307	300
6	231	3.801068961981	300
6	232	3.838007792423	300
6	233	3.854939140705	300
6	234	3.872189097535	300
6	235	3.880481486003	300
6	236	3.890707044307	300
6	237	3.901068961981	300
6	238	3.938007792423	300
6	239	3.954939140705	300
6	240	3.968805588386	300
6	241	3.980481486003	300
6	242	3.990707044307	300
6	243	4.001068961981	300
6	244	4.038007792423	300
6	245	4.054939140705	300
6	246	4.068805588386	300
6	247	4.074385805496	300
6	248	4.080481486003	300
6	249	4.101068961981	300
6	250	4.138007792423	300
6	251	4.154939140705	300
6	252	4.168805588386	300
6	253	4.174385805496	300
6	254	4.180481486003	300
6	255	4.201068961981	300
6	256	4.238007792423	300
6	257	4.254939140705	300
6	258	4.268805588386	300
6	259	4.274385805496	300
6	260	4.280481486003	300
6	261	4.301068961981	300
6	262	4.338007792423	300
6	263	4.354939140705	300
6	264	4.368805588386	300
6	265	4.374385805496	300
6	266	4.380481486003	300
6	267	4.401068961981	300
6	268	4.438007792423	300
6	269	4.454939140705	300
6	270	4.468805588386	300
6	271	4.474385805496	300
6	272	4.480481486003	300
6	273	4.494202664544	300
6	274	4.501068961981	300
6	275	4.503207772412	300
6	276	4.538007792423	300
6	277	4.568805588386	300
6	278	4.574385805496	300
6	279	4.594202664544	300
6	280	4.601068961981	300
6	281	4.603207772412	300
6	282	4.638007792423	300
6	283	4.668805588386	300
6	284	4.674385805496	300
6	285	4.694202664544	300
6	286	4.701068961981	300
6	287	4.703207772412	300
6	288	4.738007792423	300
6	289	4.768805588386	300
6	290	4.774385805496	300
6	291	4.794202664544	300
6	292	4.801068961981	300
6	293	4.803207772412	300
6	294	4.838007792423	300
6	295	4.868805588386	300
6	296	4.874385805496	300
6	297	4.894202664544	300
6	298	4.901068961981	300
6	299	4.903207772412	300
6	300	4.938007792423	300
6	301	4.968805588386	300
6	302	4.974385805496	300
6	303	4.994202664544	300
6	304	5.001068961981	300
6	305	5.003207772412	300
6	306	5.038007792423	300
6	307	5.049771622903	300
6	308	5.068805588386	300
6	309	5.074385805496	300
6	310	5.094202664544	300
6	311	5.103207772412	300
6	312	5.138007792423	300
6	313	5.149771622903	300
6	314	5.168805588386	300
6	315	5.174385805496	300
6	316	5.194202664544	300
6	317	5.203207772412	300
6	318	5.220485709614	300
6	319	5.249771622903	300
6	320	5.268805588386	300
7	0	0	20
7	1	0.1	47.92921046593
7	7	0.2	75.85842093186
7	13	0.3	103.78763139779
7	19	0.4	131.71684186372
7	25	0.5	159.64605232965
7	31	0.6	187.57526279558
7	37	0.7	215.50447326151
7	43	0.8	243.43368372744
7	49	0.9	271.36289419337
7	55	1	299.2921046593
7	61	1.1	327.22131512523
7	67	1.127851431333	335
7	68	1.2	325.57040468535
7	73	1.227851431333	321.93030854407
7	74	1.3	312.50071322942
7	79	1.327851431333	308.86061708813
7	80	1.4	299.43102177349
7	85	1.427851431333	295.7909256322
7	86	1.490707044307	287.57589095376
7	87	1.5	286.36133031755
7	91	1.527851431333	282.72123417627
7	92	1.590707044307	274.50619949783
7	93	1.6	273.29163886162
7	97	1.627851431333	269.65154272034
7	98	1.690707044307	261.4365080419
7	99	1.7	260.22194740569
7	103	1.727851431333	256.5818512644
7	104	1.790707044307	248.36681658597
7	105	1.8	247.15225594975
7	109	1.827851431333	243.51215980847
7	110	1.890707044307	235.29712513003
7	111	1.9	234.08256449382
7	115	1.927851431333	230.44246835254
7	116	1.990707044307	222.2274336741
7	117	2	221.01287303789
7	121	2.027851431333	217.37277689661
7	122	2.090707044307	209.15774221817
7	123	2.1	207.94318158196
7	127	2.115570372836	205.90818189375
7	128	2.127851431333	204.30308544067
7	129	2.172189097535	198.50828926931
7	130	2.190707044307	196.08805076224
7	131	2.2	194.87349012602
7	133	2.215570372836	192.83849043782
7	134	2.227851431333	191.23339398474
7	135	2.272189097535	185.43859781338
7	136	2.290707044307	183.0183593063
7	137	2.3	181.80379867009
7	139	2.315570372836	179.76879898189
7	140	2.327851431333	178.16370252881
7	141	2.372189097535	172.36890635744
7	142	2.390707044307	169.94866785037
7	143	2.4	168.73410721416
7	145	2.415570372836	166.69910752595
7	146	2.427851431333	165.09401107287
7	147	2.472189097535	159.29921490151
7	148	2.490707044307	156.87897639444
7	149	2.5	155.66441575823
7	151	2.515570372836	153.62941607002
7	152	2.527851431333	152.02431961694
7	153	2.554939140705	148.48403957954
7	154	2.572189097535	146.22952344558
7	155	2.590707044307	143.8092849385
7	156	2.6	142.59472430229
7	157	2.615570372836	140.55972461409
7	158	2.627851431333	138.95462816101
7	159	2.654939140705	135.41434812361
7	160	2.672189097535	133.15983198965
7	161	2.690707044307	130.73959348257
7	162	2.7	129.52503284636
7	163	2.715570372836	127.49003315816
7	164	2.727851431333	125.88493670508
7	165	2.754939140705	122.34465666768
7	166	2.772189097535	120.09014053371
7	167	2.790707044307	117.66990202664
7	168	2.8	116.45534139043
7	169	2.815570372836	114.42034170222
7	170	2.827851431333	112.81524524914
7	171	2.854939140705	109.27496521174
7	172	2.872189097535	107.02044907778
7	173	2.890707044307	104.60021057071
7	174	2.9	103.38564993449
7	175	2.915570372836	101.35065024629
7	176	2.927851431333	99.74555379321
7	177	2.954939140705	96.20527375581
7	178	2.972189097535	93.950757621847
7	179	2.990707044307	91.530519114773
7	180	3	90.315958478561
7	181	3.001068961981	90.176248445863
7	182	3.015570372836	88.280958790358
7	183	3.027851431333	86.675862337277
7	184	3.054939140705	83.135582299877
7	185	3.072189097535	80.881066165915
7	186	3.090707044307	78.46082765884
7	187	3.101068961981	77.106556989931
7	188	3.115570372836	75.211267334425
7	189	3.127851431333	73.606170881345
7	190	3.154939140705	70.065890843944
7	191	3.172189097535	67.811374709982
7	192	3.190707044307	65.391136202907
7	193	3.201068961981	64.036865533998
7	194	3.215570372836	62.141575878492
7	195	3.227851431333	60.536479425412
7	196	3.254939140705	56.996199388012
7	197	3.272189097535	54.741683254049
7	198	3.280481486003	53.657893666954
7	199	3.290707044307	52.321444746975
7	200	3.301068961981	50.967174078065
7	201	3.327851431333	47.466787969479
7	202	3.354939140705	43.926507932079
7	203	3.372189097535	41.671991798116
7	204	3.380481486003	40.588202211021
7	205	3.390707044307	39.251753291042
7	206	3.401068961981	37.897482622132
7	207	3.427851431333	34.397096513546
7	208	3.454939140705	30.856816476146
7	209	3.472189097535	28.602300342183
7	210	3.480481486003	27.518510755088
7	211	3.490707044307	26.182061835109
7	212	3.501068961981	24.8277911662
7	213	3.527851431333	21.327405057613
7	214	3.538007792423	20
7	215	3.554939140705	20
7	216	3.572189097535	20
7	217	3.580481486003	20
7	218	3.590707044307	20
7	219	3.601068961981	20
7	220	3.638007792423	20
7	221	3.654939140705	20
7	222	3.672189097535	20
7	223	3.680481486003	20
7	224	3.690707044307	20
7	225	3.701068961981	20
7	226	3.738007792423	20
7	227	3.754939140705	20
7	228	3.772189097535	20
7	229	3.780481486003	20
7	230	3.790707044307	20
7	231	3.801068961981	20
7	232	3.838007792423	20
7	233	3.854939140705	20
7	234	3.872189097535	20
7	235	3.880481486003	20
7	236	3.890707044307	20
7	237	3.901068961981	20
7	238	3.938007792423	20
7	239	3.954939140705	20
7	240	3.968805588386	20
7	241	3.980481486003	20
7	242	3.990707044307	20
7	243	4.001068961981	20
7	244	4.038007792423	20
7	245	4.054939140705	20
7	246	4.068805588386	20
7	247	4.074385805496	20
7	248	4.080481486003	20
7	249	4.101068961981	20
7	250	4.138007792423	20
7	251	4.154939140705	20
7	252	4.168805588386	20
7	253	4.174385805496	20
7	254	4.180481486003	20
7	255	4.201068961981	20
7	256	4.238007792423	20
7	257	4.254939140705	20
7	258	4.268805588386	20
7	259	4.274385805496	20
7	260	4.280481486003	20
7	261	4.301068961981	20
7	262	4.338007792423	20
7	263	4.354939140705	20
7	264	4.368805588386	20
7	265	4.374385805496	20
7	266	4.380481486003	20
7	267	4.401068961981	20
7	268	4.438007792423	20
7	269	4.454939140705	20
7	270	4.468805588386	20
7	271	4.474385805496	20
7	272	4.480481486003	20
7	273	4.494202664544	20
7	274	4.501068961981	20
7	275	4.503207772412	20
7	276	4.538007792423	20
7	277	4.568805588386	20
7	278	4.574385805496	20
7	279	4.594202664544	20
7	280	4.601068961981	20
7	281	4.603207772412	20
7	282	4.638007792423	20
7	283	4.668805588386	20
7	284	4.674385805496	20
7	285	4.694202664544	20
7	286	4.701068961981	20
7	287	4.703207772412	20
7	288	4.738007792423	20
7	289	4.768805588386	20
7	290	4.774385805496	20
7	291	4.794202664544	20
7	292	4.801068961981	20
7	293	4.803207772412	20
7	294	4.838007792423	20
7	295	4.868805588386	20
7	296	4.874385805496	20
7	297	4.894202664544	20
7	298	4.901068961981	20
7	299	4.903207772412	20
7	300	4.938007792423	20
7	301	4.968805588386	20
7	302	4.974385805496	20
7	303	4.994202664544	20
7	304	5.001068961981	20
7	305	5.003207772412	20
7	306	5.038007792423	20
7	307	5.049771622903	20
7	308	5.068805588386	20
7	309	5.074385805496	20
7	310	5.094202664544	20
7	311	5.103207772412	20
7	312	5.138007792423	20
7	313	5.149771622903	20
7	314	5.168805588386	20
7	315	5.174385805496	20
7	316	5.194202664544	20
7	317	5.203207772412	20
7	318	5.220485709614	20
7	319	5.249771622903	20
7	320	5.268805588386	20
8	0	0	0
8	1	0.1	0
8	7	0.2	0
8	13	0.3	0
8	19	0.4	0
8	25	0.5	0
8	31	0.6	0
8	37	0.7	0
8	43	0.8	0
8	49	0.9	0
8	55	1	0
8	61	1.1	0
8	67	1.127851431333	0
8	68	1.2	0
8	73	1.227851431333	0
8	74	1.3	0
8	79	1.327851431333	0
8	80	1.4	0
8	85	1.427851431333	0
8	86	1.490707044307	0
8	87	1.5	0
8	91	1.527851431333	0
8	92	1.590707044307	0
8	93	1.6	0
8	97	1.627851431333	0
8	98	1.690707044307	0
8	99	1.7	0
8	103	1.727851431333	0
8	104	1.790707044307	0
8	105	1.8	0
8	109	1.827851431333	0
8	110	1.890707044307	0
8	111	1.9	0
8	115	1.927851431333	0
8	116	1.990707044307	0
8	117	2	0
8	121	2.027851431333	0
8	122	2.090707044307	0
8	123	2.1	0
8	127	2.115570372836	0
8	128	2.127851431333	0
8	129	2.172189097535	0
8	130	2.190707044307	0
8	131	2.2	0
8	133	2.215570372836	0
8	134	2.227851431333	0
8	135	2.272189097535	0
8	136	2.290707044307	0
8	137	2.3	0
8	139	2.315570372836	0
8	140	2.327851431333	0
8	141	2.372189097535	0
8	142	2.390707044307	0
8	143	2.4	0
8	145	2.415570372836	0
8	146	2.427851431333	0
8	147	2.472189097535	0
8	148	2.490707044307	0
8	149	2.5	0
8	151	2.515570372836	0
8	152	2.527851431333	0
8	153	2.554939140705	0
8	154	2.572189097535	0
8	155	2.590707044307	0
8	156	2.6	0
8	157	2.615570372836	0
8	158	2.627851431333	0
8	159	2.654939140705	0
8	160	2.672189097535	0
8	161	2.690707044307	0
8	162	2.7	0
8	163	2.715570372836	0
8	164	2.727851431333	0
8	165	2.754939140705	0
8	166	2.772189097535	0
8	167	2.790707044307	0
8	168	2.8	0
8	169	2.815570372836	0
8	170	2.827851431333	0
8	171	2.854939140705	0
8	172	2.872189097535	0
8	173	2.890707044307	0
8	174	2.9	0
8	175	2.915570372836	0
8	176	2.927851431333	0
8	177	2.954939140705	0
8	178	2.972189097535	0
8	179	2.990707044307	0
8	180	3	0
8	181	3.001068961981	0
8	182	3.015570372836	0
8	183	3.027851431333	0
8	184	3.054939140705	0
8	185	3.072189097535	0
8	186	3.090707044307	0
8	187	3.101068961981	0
8	188	3.115570372836	0
8	189	3.127851431333	0
8	190	3.154939140705	0
8	191	3.172189097535	0
8	192	3.190707044307	0
8	193	3.201068961981	0
8	194	3.215570372836	0
8	195	3.227851431333	0
8	196	3.254939140705	0
8	197	3.272189097535	0
8	198	3.280481486003	0
8	199	3.290707044307	0
8	200	3.301068961981	0
8	201	3.327851431333	0
8	202	3.354939140705	0
8	203	3.372189097535	0
8	204	3.380481486003	0
8	205	3.390707044307	0
8	206	3.401068961981	0
8	207	3.427851431333	0
8	208	3.454939140705	0
8	209	3.472189097535	0
8	210	3.480481486003	0
8	211	3.490707044307	0
8	212	3.501068961981	0
8	213	3.527851431333	0
8	214	3.538007792423	0
8	215	3.554939140705	0
8	216	3.572189097535	0
8	217	3.580481486003	0
8	218	3.590707044307	0
8	219	3.601068961981	0
8	220	3.638007792423	0
8	221	3.654939140705	0
8	222	3.672189097535	0
8	223	3.680481486003	0
8	224	3.690707044307	0
8	225	3.701068961981	0
8	226	3.738007792423	0
8	227	3.754939140705	0
8	228	3.772189097535	0
8	229	3.780481486003	0
8	230	3.790707044307	0
8	231	3.801068961981	0
8	232	3.838007792423	0
8	233	3.854939140705	0
8	234	3.872189097535	0
8	235	3.880481486003	0
8	236	3.890707044307	0
8	237	3.901068961981	0
8	238	3.938007792423	0
8	239	3.954939140705	0
8	240	3.968805588386	0
8	241	3.980481486003	0
8	242	3.990707044307	0
8	243	4.001068961981	0
8	244	4.038007792423	0
8	245	4.054939140705	0
8	246	4.068805588386	0
8	247	4.074385805496	0
8	248	4.080481486003	0
8	249	4.101068961981	0
8	250	4.138007792423	0
8	251	4.154939140705	0
8	252	4.168805588386	0
8	253	4.174385805496	0
8	254	4.180481486003	0
8	255	4.201068961981	0
8	256	4.238007792423	0
8	257	4.254939140705	0
8	258	4.268805588386	0
8	259	4.274385805496	0
8	260	4.280481486003	0
8	261	4.301068961981	0
8	262	4.338007792423	0
8	263	4.354939140705	0
8	264	4.368805588386	0
8	265	4.374385805496	0
8	266	4.380481486003	0
8	267	4.401068961981	0
8	268	4.438007792423	0
8	269	4.454939140705	0
8	270	4.468805588386	0
8	271	4.474385805496	0
8	272	4.480481486003	0
8	273	4.494202664544	0
8	274	4.501068961981	0
8	275	4.503207772412	0
8	276	4.538007792423	0
8	277	4.568805588386	0
8	278	4.574385805496	0
8	279	4.594202664544	0
8	280	4.601068961981	0
8	281	4.603207772412	0
8	282	4.638007792423	0
8	283	4.668805588386	0
8	284	4.674385805496	0
8	285	4.694202664544	0
8	286	4.701068961981	0
8	287	4.703207772412	0
8	288	4.738007792423	0
8	289	4.768805588386	0
8	290	4.774385805496	0
8	291	4.794202664544	0
8	292	4.801068961981	0
8	293	4.803207772412	0
8	294	4.838007792423	0
8	295	4.868805588386	0
8	296	4.874385805496	0
8	297	4.894202664544	0
8	298	4.901068961981	0
8	299	4.903207772412	0
8	300	4.938007792423	0
8	301	4.968805588386	0
8	302	4.974385805496	0
8	303	4.994202664544	0
8	304	5.001068961981	0
8	305	5.003207772412	0
8	306	5.038007792423	0
8	307	5.049771622903	0
8	308	5.068805588386	0
8	309	5.074385805496	0
8	310	5.094202664544	0
8	311	5.103207772412	0
8	312	5.138007792423	0
8	313	5.149771622903	0
8	314	5.168805588386	0
8	315	5.174385805496	0
8	316	5.194202664544	0
8	317	5.203207772412	0
8	318	5.220485709614	0
8	319	5.249771622903	0
8	320	5.268805588386	0
9	0	0	300
9	1	0.1	313.51881287771
9	7	0.2	327.03762575542
9	13	0.3	340.55643863313
9	19	0.4	354.07525151085
9	25	0.5	367.59406438856
9	31	0.6	381.11287726627
9	37	0.7	394.63169014398
9	43	0.8	408.15050302169
9	49	0.9	421.6693158994
9	55	1	435.18812877711
9	61	1.1	448.70694165483
9	67	1.127851431333	452.4721245405
9	68	1.2	462.22575453254
9	73	1.227851431333	465.99093741821
9	74	1.3	475.74456741025
9	79	1.327851431333	479.50975029592
9	80	1.4	489.26338028796
9	85	1.427851431333	493.02856317363
9	86	1.490707044307	501.52589587473
9	87	1.5	502.78219316567
9	91	1.527851431333	506.54737605134
9	92	1.590707044307	515.04470875244
9	93	1.6	516.30100604338
9	97	1.627851431333	520.06618892905
9	98	1.690707044307	528.56352163015
9	99	1.7	529.81981892109
9	103	1.727851431333	533.58500180677
9	104	1.790707044307	542.08233450786
9	105	1.8	543.3386317988
9	109	1.827851431333	547.10381468448
9	110	1.890707044307	555.60114738557
9	111	1.9	556.85744467652
9	115	1.927851431333	560.62262756219
9	116	1.990707044307	569.11996026328
9	117	2	570.37625755423
9	121	2.027851431333	574.1414404399
9	122	2.090707044307	582.63877314099
9	123	2.1	583.89507043194
9	127	2.115570372836	586
9	128	2.127851431333	582.98484915249
9	129	2.172189097535	572.0994070012
9	130	2.190707044307	567.55302340426
9	131	2.2	565.27148853164
9	133	2.215570372836	561.44877057422
9	134	2.227851431333	558.43361972671
9	135	2.272189097535	547.54817757542
9	136	2.290707044307	543.00179397849
9	137	2.3	540.72025910586
9	139	2.315570372836	536.89754114845
9	140	2.327851431333	533.88239030093
9	141	2.372189097535	522.99694814965
9	142	2.390707044307	518.45056455271
9	143	2.4	516.16902968009
9	145	2.415570372836	512.34631172267
9	146	2.427851431333	509.33116087516
9	147	2.472189097535	498.44571872387
9	148	2.490707044307	493.89933512693
9	149	2.5	491.61780025431
9	151	2.515570372836	487.79508229689
9	152	2.527851431333	484.77993144938
9	153	2.554939140705	478.12956577527
9	154	2.572189097535	473.89448929809
9	155	2.590707044307	469.34810570116
9	156	2.6	467.06657082853
9	157	2.615570372836	463.24385287112
9	158	2.627851431333	460.2287020236
9	159	2.654939140705	453.5783363495
9	160	2.672189097535	449.34325987232
9	161	2.690707044307	444.79687627538
9	162	2.7	442.51534140275
9	163	2.715570372836	438.69262344534
9	164	2.727851431333	435.67747259783
9	165	2.754939140705	429.02710692372
9	166	2.772189097535	424.79203044654
9	167	2.790707044307	420.2456468496
9	168	2.8	417.96411197698
9	169	2.815570372836	414.14139401956
9	170	2.827851431333	411.12624317205
9	171	2.854939140705	404.47587749794
9	172	2.872189097535	400.24080102076
9	173	2.890707044307	395.69441742383
9	174	2.9	393.4128825512
9	175	2.915570372836	389.59016459379
9	176	2.927851431333	386.57501374627
9	177	2.954939140705	379.92464807217
9	178	2.972189097535	375.68957159499
9	179	2.990707044307	371.14318799805
9	180	3	368.86165312542
9	181	3.001068961981	368.59920981699
9	182	3.015570372836	365.03893516801
9	183	3.027851431333	362.0237843205
9	184	3.054939140705	355.37341864639
9	185	3.072189097535	351.13834216921
9	186	3.090707044307	346.59195857227
9	187	3.101068961981	344.04798039122
9	188	3.115570372836	340.48770574223
9	189	3.127851431333	337.47255489472
9	190	3.154939140705	330.82218922061
9	191	3.172189097535	326.58711274343
9	192	3.190707044307	322.0407291465
9	193	3.201068961981	319.49675096544
9	194	3.215570372836	315.93647631646
9	195	3.227851431333	312.92132546894
9	196	3.254939140705	306.27095979484
9	197	3.272189097535	302.03588331766
9	198	3.280481486003	300
9	199	3.290707044307	300
9	200	3.301068961981	300
9	201	3.327851431333	300
9	202	3.354939140705	300
9	203	3.372189097535	300
9	204	3.380481486003	300
9	205	3.390707044307	300
9	206	3.401068961981	300
9	207	3.427851431333	300
9	208	3.454939140705	300
9	209	3.472189097535	300
9	210	3.480481486003	300
9	211	3.490707044307	300
9	212	3.501068961981	300
9	213	3.527851431333	300
9	214	3.538007792423	300
9	215	3.554939140705	300
9	216	3.572189097535	300
9	217	3.580481486003	300
9	218	3.590707044307	300
9	219	3.601068961981	300
9	220	3.638007792423	300
9	221	3.654939140705	300
9	222	3.672189097535	300
9	223	3.680481486003	300
9	224	3.690707044307	300
9	225	3.701068961981	300
9	226	3.738007792423	300
9	227	3.754939140705	300
9	228	3.772189097535	300
9	229	3.780481486003	300
9	230	3.790707044307	300
9	231	3.801068961981	300
9	232	3.838007792423	300
9	233	3.854939140705	300
9	234	3.872189097535	300
9	235	3.880481486003	300
9	236	3.890707044307	300
9	237	3.901068961981	300
9	238	3.938007792423	300
9	239	3.954939140705	300
9	240	3.968805588386	300
9	241	3.980481486003	300
9	242	3.990707044307	300
9	243	4.001068961981	300
9	244	4.038007792423	300
9	245	4.054939140705	300
9	246	4.068805588386	300
9	247	4.074385805496	300
9	248	4.080481486003	300
9	249	4.101068961981	300
9	250	4.138007792423	300
9	251	4.154939140705	300
9	252	4.168805588386	300
9	253	4.174385805496	300
9	254	4.180481486003	300
9	255	4.201068961981	300
9	256	4.238007792423	300
9	257	4.254939140705	300
9	258	4.268805588386	300
9	259	4.274385805496	300
9	260	4.280481486003	300
9	261	4.301068961981	300
9	262	4.338007792423	300
9	263	4.354939140705	300
9	264	4.368805588386	300
9	265	4.374385805496	300
9	266	4.380481486003	300
9	267	4.401068961981	300
9	268	4.438007792423	300
9	269	4.454939140705	300
9	270	4.468805588386	300
9	271	4.474385805496	300
9	272	4.480481486003	300
9	273	4.494202664544	300
9	274	4.501068961981	300
9	275	4.503207772412	300
9	276	4.538007792423	300
9	277	4.568805588386	300
9	278	4.574385805496	300
9	279	4.594202664544	300
9	280	4.601068961981	300
9	281	4.603207772412	300
9	282	4.638007792423	300
9	283	4.668805588386	300
9	284	4.674385805496	300
9	285	4.694202664544	300
9	286	4.701068961981	300
9	287	4.703207772412	300
9	288	4.738007792423	300
9	289	4.768805588386	300
9	290	4.774385805496	300
9	291	4.794202664544	300
9	292	4.801068961981	300
9	293	4.803207772412	300
9	294	4.838007792423	300
9	295	4.868805588386	300
9	296	4.874385805496	300
9	297	4.894202664544	300
9	298	4.901068961981	300
9	299	4.903207772412	300
9	300	4.938007792423	300
9	301	4.968805588386	300
9	302	4.974385805496	300
9	303	4.994202664544	300
9	304	5.001068961981	300
9	305	5.003207772412	300
9	306	5.038007792423	300
9	307	5.049771622903	300
9	308	5.068805588386	300
9	309	5.074385805496	300
9	310	5.094202664544	300
9	311	5.103207772412	300
9	312	5.138007792423	300
9	313	5.149771622903	300
9	314	5.168805588386	300
9	315	5.174385805496	300
9	316	5.194202664544	300
9	317	5.203207772412	300
9	318	5.220485709614	300
9	319	5.249771622903	300
9	320	5.268805588386	300
10	0	0	20
10	1	0.1	23.403337507676
10	7	0.2	26.806675015351
10	13	0.3	30.210012523027
10	19	0.4	33.613350030702
10	25	0.5	37.016687538378
10	31	0.6	40.420025046054
10	37	0.7	43.823362553729
10	43	0.8	47.226700061405
10	49	0.9	50.63003756908
10	55	1	54.033375076756
10	61	1.1	57.436712584432
10	67	1.127851431333	58.384590793412
10	68	1.2	60.840050092107
10	73	1.227851431333	61.787928301088
10	74	1.3	64.243387599783
10	79	1.327851431333	65.191265808763
10	80	1.4	67.646725107458
10	85	1.427851431333	68.594603316439
10	86	1.490707044307	70.733791968462
10	87	1.5	71.050062615134
10	91	1.527851431333	71.997940824114
10	92	1.590707044307	74.137129476138
10	93	1.6	74.45340012281
10	97	1.627851431333	75.40127833179
10	98	1.690707044307	77.540466983814
10	99	1.7	77.856737630485
10	103	1.727851431333	78.804615839466
10	104	1.790707044307	80.943804491489
10	105	1.8	81.260075138161
10	109	1.827851431333	82.207953347141
10	110	1.890707044307	84.347141999165
10	111	1.9	84.663412645836
10	115	1.927851431333	85.611290854817
10	116	1.990707044307	87.75047950684
10	117	2	88.066750153512
10	121	2.027851431333	89.014628362492
10	122	2.090707044307	91.153817014516
10	123	2.1	91.470087661187
10	127	2.115570372836	92
10	128	2.127851431333	91.240941045382
10	129	2.172189097535	88.500550014288
10	130	2.190707044307	87.356005891982
10	131	2.2	86.781633476496
10	133	2.215570372836	85.81927091379
10	134	2.227851431333	85.060211959172
10	135	2.272189097535	82.319820928078
10	136	2.290707044307	81.175276805773
10	137	2.3	80.600904390287
10	139	2.315570372836	79.638541827581
10	140	2.327851431333	78.879482872962
10	141	2.372189097535	76.139091841869
10	142	2.390707044307	74.994547719563
10	143	2.4	74.420175304077
10	145	2.415570372836	73.457812741371
10	146	2.427851431333	72.698753786753
10	147	2.472189097535	69.958362755659
10	148	2.490707044307	68.813818633354
10	149	2.5	68.239446217868
10	151	2.515570372836	67.277083655162
10	152	2.527851431333	66.518024700543
10	153	2.554939140705	64.8438067686
10	154	2.572189097535	63.77763366945
10	155	2.590707044307	62.633089547144
10	156	2.6	62.058717131658
10	157	2.615570372836	61.096354568952
10	158	2.627851431333	60.337295614334
10	159	2.654939140705	58.663077682391
10	160	2.672189097535	57.59690458324
10	161	2.690707044307	56.452360460935
10	162	2.7	55.877988045449
10	163	2.715570372836	54.915625482743
10	164	2.727851431333	54.156566528124
10	165	2.754939140705	52.482348596181
10	166	2.772189097535	51.416175497031
10	167	2.790707044307	50.271631374725
10	168	2.8	49.697258959239
10	169	2.815570372836	48.734896396533
10	170	2.827851431333	47.975837441915
10	171	2.854939140705	46.301619509972
10	172	2.872189097535	45.235446410821
10	173	2.890707044307	44.090902288515
10	174	2.9	43.51652987303
10	175	2.915570372836	42.554167310324
10	176	2.927851431333	41.795108355705
10	177	2.954939140705	40.120890423762
10	178	2.972189097535	39.054717324612
10	179	2.990707044307	37.910173202306
10	180	3	37.33580078682
10	181	3.001068961981	37.26973114274
10	182	3.015570372836	36.373438224114
10	183	3.027851431333	35.614379269496
10	184	3.054939140705	33.940161337553
10	185	3.072189097535	32.873988238402
10	186	3.090707044307	31.729444116096
10	187	3.101068961981	31.08900205653
10	188	3.115570372836	30.192709137905
10	189	3.127851431333	29.433650183286
10	190	3.154939140705	27.759432251343
10	191	3.172189097535	26.693259152193
10	192	3.190707044307	25.548715029887
10	193	3.201068961981	24.908272970321
10	194	3.215570372836	24.011980051695
10	195	3.227851431333	23.252921097077
10	196	3.254939140705	21.578703165134
10	197	3.272189097535	20.512530065983
10	198	3.280481486003	20
10	199	3.290707044307	20
10	200	3.301068961981	20
10	201	3.327851431333	20
10	202	3.354939140705	20
10	203	3.372189097535	20
10	204	3.380481486003	20
10	205	3.390707044307	20
10	206	3.401068961981	20
10	207	3.427851431333	20
10	208	3.454939140705	20
10	209	3.472189097535	20
10	210	3.480481486003	20
10	211	3.490707044307	20
10	212	3.501068961981	20
10	213	3.527851431333	20
10	214	3.538007792423	20
10	215	3.554939140705	20
10	216	3.572189097535	20
10	217	3.580481486003	20
10	218	3.590707044307	20
10	219	3.601068961981	20
10	220	3.638007792423	20
10	221	3.654939140705	20
10	222	3.672189097535	20
10	223	3.680481486003	20
10	224	3.690707044307	20
10	225	3.701068961981	20
10	226	3.738007792423	20
10	227	3.754939140705	20
10	228	3.772189097535	20
10	229	3.780481486003	20
10	230	3.790707044307	20
10	231	3.801068961981	20
10	232	3.838007792423	20
10	233	3.854939140705	20
10	234	3.872189097535	20
10	235	3.880481486003	20
10	236	3.890707044307	20
10	237	3.901068961981	20
10	238	3.938007792423	20
10	239	3.954939140705	20
10	240	3.968805588386	20
10	241	3.980481486003	20
10	242	3.990707044307	20
10	243	4.001068961981	20
10	244	4.038007792423	20
10	245	4.054939140705	20
10	246	4.068805588386	20
10	247	4.074385805496	20
10	248	4.080481486003	20
10	249	4.101068961981	20
10	250	4.138007792423	20
10	251	4.154939140705	20
10	252	4.168805588386	20
10	253	4.174385805496	20
10	254	4.180481486003	20
10	255	4.201068961981	20
10	256	4.238007792423	20
10	257	4.254939140705	20
10	258	4.268805588386	20
10	259	4.274385805496	20
10	260	4.280481486003	20
10	261	4.301068961981	20
10	262	4.338007792423	20
10	263	4.354939140705	20
10	264	4.368805588386	20
10	265	4.374385805496	20
10	266	4.380481486003	20
10	267	4.401068961981	20
10	268	4.438007792423	20
10	269	4.454939140705	20
10	270	4.468805588386	20
10	271	4.474385805496	20
10	272	4.480481486003	20
10	273	4.494202664544	20
10	274	4.501068961981	20
10	275	4.503207772412	20
10	276	4.538007792423	20
10	277	4.568805588386	20
10	278	4.574385805496	20
10	279	4.594202664544	20
10	280	4.601068961981	20
10	281	4.603207772412	20
10	282	4.638007792423	20
10	283	4.668805588386	20
10	284	4.674385805496	20
10	285	4.694202664544	20
10	286	4.701068961981	20
10	287	4.703207772412	20
10	288	4.738007792423	20
10	289	4.768805588386	20
10	290	4.774385805496	20
10	291	4.794202664544	20
10	292	4.801068961981	20
10	293	4.803207772412	20
10	294	4.838007792423	20
10	295	4.868805588386	20
10	296	4.874385805496	20
10	297	4.894202664544	20
10	298	4.901068961981	20
10	299	4.903207772412	20
10	300	4.938007792423	20
10	301	4.968805588386	20
10	302	4.974385805496	20
10	303	4.994202664544	20
10	304	5.001068961981	20
10	305	5.003207772412	20
10	306	5.038007792423	20
10	307	5.049771622903	20
10	308	5.068805588386	20
10	309	5.074385805496	20
10	310	5.094202664544	20
10	311	5.103207772412	20
10	312	5.138007792423	20
10	313	5.149771622903	20
10	314	5.168805588386	20
10	315	5.174385805496	20
10	316	5.194202664544	20
10	317	5.203207772412	20
10	318	5.220485709614	20
10	319	5.249771622903	20
10	320	5.268805588386	20
11	0	0	0
11	1	0.1	0
11	7	0.2	0
11	13	0.3	0
11	19	0.4	0
11	25	0.5	0
11	31	0.6	0
11	37	0.7	0
11	43	0.8	0
11	49	0.9	0
11	55	1	0
11	61	1.1	0
11	67	1.127851431333	0
11	68	1.2	0
11	73	1.227851431333	0
11	74	1.3	0
11	79	1.327851431333	0
11	80	1.4	0
11	85	1.427851431333	0
11	86	1.490707044307	0
11	87	1.5	0
11	91	1.527851431333	0
11	92	1.590707044307	0
11	93	1.6	0
11	97	1.627851431333	0
11	98	1.690707044307	0
11	99	1.7	0
11	103	1.727851431333	0
11	104	1.790707044307	0
11	105	1.8	0
11	109	1.827851431333	0
11	110	1.890707044307	0
11	111	1.9	0
11	115	1.927851431333	0
11	116	1.990707044307	0
11	117	2	0
11	121	2.027851431333	0
11	122	2.090707044307	0
11	123	2.1	0
11	127	2.115570372836	0
11	128	2.127851431333	0
11	129	2.172189097535	0
11	130	2.190707044307	0
11	131	2.2	0
11	133	2.215570372836	0
11	134	2.227851431333	0
11	135	2.272189097535	0
11	136	2.290707044307	0
11	137	2.3	0
11	139	2.315570372836	0
11	140	2.327851431333	0
11	141	2.372189097535	0
11	142	2.390707044307	0
11	143	2.4	0
11	145	2.415570372836	0
11	146	2.427851431333	0
11	147	2.472189097535	0
11	148	2.490707044307	0
11	149	2.5	0
11	151	2.515570372836	0
11	152	2.527851431333	0
11	153	2.554939140705	0
11	154	2.572189097535	0
11	155	2.590707044307	0
11	156	2.6	0
11	157	2.615570372836	0
11	158	2.627851431333	0
11	159	2.654939140705	0
11	160	2.672189097535	0
11	161	2.690707044307	0
11	162	2.7	0
11	163	2.715570372836	0
11	164	2.727851431333	0
11	165	2.754939140705	0
11	166	2.772189097535	0
11	167	2.790707044307	0
11	168	2.8	0
11	169	2.815570372836	0
11	170	2.827851431333	0
11	171	2.854939140705	0
11	172	2.872189097535	0
11	173	2.890707044307	0
11	174	2.9	0
11	175	2.915570372836	0
11	176	2.927851431333	0
11	177	2.954939140705	0
11	178	2.972189097535	0
11	179	2.990707044307	0
11	180	3	0
11	181	3.001068961981	0
11	182	3.015570372836	0
11	183	3.027851431333	0
11	184	3.054939140705	0
11	185	3.072189097535	0
11	186	3.090707044307	0
11	187	3.101068961981	0
11	188	3.115570372836	0
11	189	3.127851431333	0
11	190	3.154939140705	0
11	191	3.172189097535	0
11	192	3.190707044307	0
11	193	3.201068961981	0
11	194	3.215570372836	0
11	195	3.227851431333	0
11	196	3.254939140705	0
11	197	3.272189097535	0
11	198	3.280481486003	0
11	199	3.290707044307	0
11	200	3.301068961981	0
11	201	3.327851431333	0
11	202	3.354939140705	0
11	203	3.372189097535	0
11	204	3.380481486003	0
11	205	3.390707044307	0
11	206	3.401068961981	0
11	207	3.427851431333	0
11	208	3.454939140705	0
11	209	3.472189097535	0
11	210	3.480481486003	0
11	211	3.490707044307	0
11	212	3.501068961981	0
11	213	3.527851431333	0
11	214	3.538007792423	0
11	215	3.554939140705	0
11	216	3.572189097535	0
11	217	3.580481486003	0
11	218	3.590707044307	0
11	219	3.601068961981	0
11	220	3.638007792423	0
11	221	3.654939140705	0
11	222	3.672189097535	0
11	223	3.680481486003	0
11	224	3.690707044307	0
11	225	3.701068961981	0
11	226	3.738007792423	0
11	227	3.754939140705	0
11	228	3.772189097535	0
11	229	3.780481486003	0
11	230	3.790707044307	0
11	231	3.801068961981	0
11	232	3.838007792423	0
11	233	3.854939140705	0
11	234	3.872189097535	0
11	235	3.880481486003	0
11	236	3.890707044307	0
11	237	3.901068961981	0
11	238	3.938007792423	0
11	239	3.954939140705	0
11	240	3.968805588386	0
11	241	3.980481486003	0
11	242	3.990707044307	0
11	243	4.001068961981	0
11	244	4.038007792423	0
11	245	4.054939140705	0
11	246	4.068805588386	0
11	247	4.074385805496	0
11	248	4.080481486003	0
11	249	4.101068961981	0
11	250	4.138007792423	0
11	251	4.154939140705	0
11	252	4.168805588386	0
11	253	4.174385805496	0
11	254	4.180481486003	0
11	255	4.201068961981	0
11	256	4.238007792423	0
11	257	4.254939140705	0
11	258	4.268805588386	0
11	259	4.274385805496	0
11	260	4.280481486003	0
11	261	4.301068961981	0
11	262	4.338007792423	0
11	263	4.354939140705	0
11	264	4.368805588386	0
11	265	4.374385805496	0
11	266	4.380481486003	0
11	267	4.401068961981	0
11	268	4.438007792423	0
11	269	4.454939140705	0
11	270	4.468805588386	0
11	271	4.474385805496	0
[...]
14	317	5.203207772412	0
14	318	5.220485709614	0
14	319	5.249771622903	0
14	320	5.268805588386	0
15	0	0	300
15	1	0.1	304.15910022273
15	7	0.2	308.31820044546
15	13	0.3	312.47730066819
15	19	0.4	316.63640089091
15	25	0.5	320.79550111364
15	31	0.6	324.95460133637
15	37	0.7	329.1137015591
15	43	0.8	333.27280178183
15	49	0.9	337.43190200456
15	55	1	341.59100222728
15	61	1.1	345.75010245001
15	67	1.127851431333	346.90847139262
15	68	1.2	349.90920267274
15	73	1.227851431333	351.06757161534
15	74	1.3	354.06830289547
15	79	1.327851431333	355.22667183807
15	80	1.4	358.2274031182
15	85	1.427851431333	359.3857720608
15	86	1.490707044307	362
15	87	1.5	361.77699888174
15	91	1.527851431333	361.10865389684
15	92	1.590707044307	359.60032087072
15	93	1.6	359.37731975246
15	97	1.627851431333	358.70897476755
15	98	1.690707044307	357.20064174143
15	99	1.7	356.97764062317
15	103	1.727851431333	356.30929563827
15	104	1.790707044307	354.80096261215
15	105	1.8	354.57796149389
15	109	1.827851431333	353.90961650898
15	110	1.890707044307	352.40128348286
15	111	1.9	352.1782823646
15	115	1.927851431333	351.5099373797
15	116	1.990707044307	350.00160435358
15	117	2	349.77860323532
15	121	2.027851431333	349.11025825042
15	122	2.090707044307	347.6019252243
15	123	2.1	347.37892410604
15	127	2.115570372836	347.00528511874
15	128	2.127851431333	346.71057912113
15	129	2.172189097535	345.64661739887
15	130	2.190707044307	345.20224609501
15	131	2.2	344.97924497675
15	133	2.215570372836	344.60560598946
15	134	2.227851431333	344.31089999185
15	135	2.272189097535	343.24693826959
15	136	2.290707044307	342.80256696573
15	137	2.3	342.57956584747
15	139	2.315570372836	342.20592686017
15	140	2.327851431333	341.91122086256
15	141	2.372189097535	340.8472591403
15	142	2.390707044307	340.40288783644
15	143	2.4	340.17988671818
15	145	2.415570372836	339.80624773089
15	146	2.427851431333	339.51154173328
15	147	2.472189097535	338.44758001102
15	148	2.490707044307	338.00320870716
15	149	2.5	337.7802075889
15	151	2.515570372836	337.4065686016
15	152	2.527851431333	337.11186260399
15	153	2.554939140705	336.46184449559
15	154	2.572189097535	336.04790088173
15	155	2.590707044307	335.60352957787
15	156	2.6	335.38052845962
15	157	2.615570372836	335.00688947232
15	158	2.627851431333	334.71218347471
15	159	2.654939140705	334.06216536631
15	160	2.672189097535	333.64822175245
15	161	2.690707044307	333.20385044859
15	162	2.7	332.98084933033
15	163	2.715570372836	332.60721034303
15	164	2.727851431333	332.31250434543
15	165	2.754939140705	331.66248623703
15	166	2.772189097535	331.24854262317
15	167	2.790707044307	330.80417131931
15	168	2.8	330.58117020105
15	169	2.815570372836	330.20753121375
15	170	2.827851431333	329.91282521614
15	171	2.854939140705	329.26280710774
15	172	2.872189097535	328.84886349388
15	173	2.890707044307	328.40449219002
15	174	2.9	328.18149107176
15	175	2.915570372836	327.80785208447
15	176	2.927851431333	327.51314608686
15	177	2.954939140705	326.86312797846
15	178	2.972189097535	326.4491843646
15	179	2.990707044307	326.00481306074
15	180	3	325.78181194248
15	181	3.001068961981	325.75616028492
15	182	3.015570372836	325.40817295518
15	183	3.027851431333	325.11346695757
15	184	3.054939140705	324.46344884917
15	185	3.072189097535	324.04950523531
15	186	3.090707044307	323.60513393145
15	187	3.101068961981	323.35648115564
15	188	3.115570372836	323.0084938259
15	189	3.127851431333	322.71378782829
15	190	3.154939140705	322.06376971989
15	191	3.172189097535	321.64982610603
15	192	3.190707044307	321.20545480217
15	193	3.201068961981	320.95680202635
15	194	3.215570372836	320.60881469661
15	195	3.227851431333	320.31410869901
15	196	3.254939140705	319.6640905906
15	197	3.272189097535	319.25014697674
15	198	3.280481486003	319.05115626136
15	199	3.290707044307	318.80577567289
15	200	3.301068961981	318.55712289707
15	201	3.327851431333	317.91442956972
15	202	3.354939140705	317.26441146132
15	203	3.372189097535	316.85046784746
15	204	3.380481486003	316.65147713207
15	205	3.390707044307	316.4060965436
15	206	3.401068961981	316.15744376778
15	207	3.427851431333	315.51475044044
15	208	3.454939140705	314.86473233204
15	209	3.472189097535	314.45078871818
15	210	3.480481486003	314.25179800279
15	211	3.490707044307	314.00641741432
15	212	3.501068961981	313.7577646385
15	213	3.527851431333	313.11507131115
15	214	3.538007792423	312.87135123378
15	215	3.554939140705	312.46505320275
15	216	3.572189097535	312.05110958889
15	217	3.580481486003	311.85211887351
15	218	3.590707044307	311.60673828503
15	219	3.601068961981	311.35808550922
15	220	3.638007792423	310.4716721045
15	221	3.654939140705	310.06537407347
15	222	3.672189097535	309.65143045961
15	223	3.680481486003	309.45243974422
15	224	3.690707044307	309.20705915575
15	225	3.701068961981	308.95840637993
15	226	3.738007792423	308.07199297521
15	227	3.754939140705	307.66569494418
15	228	3.772189097535	307.25175133032
15	229	3.780481486003	307.05276061494
15	230	3.790707044307	306.80738002646
15	231	3.801068961981	306.55872725065
15	232	3.838007792423	305.67231384593
15	233	3.854939140705	305.2660158149
15	234	3.872189097535	304.85207220104
15	235	3.880481486003	304.65308148565
15	236	3.890707044307	304.40770089718
15	237	3.901068961981	304.15904812136
15	238	3.938007792423	303.27263471665
15	239	3.954939140705	302.86633668562
15	240	3.968805588386	302.53358643464
15	241	3.980481486003	302.25340235637
15	242	3.990707044307	302.0080217679
15	243	4.001068961981	301.75936899208
15	244	4.038007792423	300.87295558736
15	245	4.054939140705	300.46665755633
15	246	4.068805588386	300.13390730536
15	247	4.074385805496	300
15	248	4.080481486003	300
15	249	4.101068961981	300
15	250	4.138007792423	300
15	251	4.154939140705	300
15	252	4.168805588386	300
15	253	4.174385805496	300
15	254	4.180481486003	300
15	255	4.201068961981	300
15	256	4.238007792423	300
15	257	4.254939140705	300
15	258	4.268805588386	300
15	259	4.274385805496	300
15	260	4.280481486003	300
15	261	4.301068961981	300
15	262	4.338007792423	300
15	263	4.354939140705	300
15	264	4.368805588386	300
15	265	4.374385805496	300
15	266	4.380481486003	300
15	267	4.401068961981	300
15	268	4.438007792423	300
15	269	4.454939140705	300
15	270	4.468805588386	300
15	271	4.474385805496	300
15	272	4.480481486003	300
15	273	4.494202664544	300
15	274	4.501068961981	300
15	275	4.503207772412	300
15	276	4.538007792423	300
15	277	4.568805588386	300
15	278	4.574385805496	300
15	279	4.594202664544	300
15	280	4.601068961981	300
15	281	4.603207772412	300
15	282	4.638007792423	300
15	283	4.668805588386	300
15	284	4.674385805496	300
15	285	4.694202664544	300
15	286	4.701068961981	300
15	287	4.703207772412	300
15	288	4.738007792423	300
15	289	4.768805588386	300
15	290	4.774385805496	300
15	291	4.794202664544	300
15	292	4.801068961981	300
15	293	4.803207772412	300
15	294	4.838007792423	300
15	295	4.868805588386	300
15	296	4.874385805496	300
15	297	4.894202664544	300
15	298	4.901068961981	300
15	299	4.903207772412	300
15	300	4.938007792423	300
15	301	4.968805588386	300
15	302	4.974385805496	300
15	303	4.994202664544	300
15	304	5.001068961981	300
15	305	5.003207772412	300
15	306	5.038007792423	300
15	307	5.049771622903	300
15	308	5.068805588386	300
15	309	5.074385805496	300
15	310	5.094202664544	300
15	311	5.103207772412	300
15	312	5.138007792423	300
15	313	5.149771622903	300
15	314	5.168805588386	300
15	315	5.174385805496	300
15	316	5.194202664544	300
15	317	5.203207772412	300
15	318	5.220485709614	300
15	319	5.249771622903	300
15	320	5.268805588386	300
16	0	0	20
16	1	0.1	20.469575831598
16	7	0.2	20.939151663197
16	13	0.3	21.408727494795
16	19	0.4	21.878303326393
16	25	0.5	22.347879157992
16	31	0.6	22.81745498959
16	37	0.7	23.287030821189
16	43	0.8	23.756606652787
16	49	0.9	24.226182484385
16	55	1	24.695758315984
16	61	1.1	25.165334147582
16	67	1.127851431333	25.296117737876
16	68	1.2	25.63490997918
16	73	1.227851431333	25.765693569474
16	74	1.3	26.104485810779
16	79	1.327851431333	26.235269401073
16	80	1.4	26.574061642377
16	85	1.427851431333	26.704845232671
16	86	1.490707044307	27
16	87	1.5	26.97482245439
16	91	1.527851431333	26.899364149643
16	92	1.590707044307	26.729068485403
16	93	1.6	26.703890939794
16	97	1.627851431333	26.628432635046
16	98	1.690707044307	26.458136970807
16	99	1.7	26.432959425197
16	103	1.727851431333	26.35750112045
16	104	1.790707044307	26.18720545621
16	105	1.8	26.1620279106
16	109	1.827851431333	26.086569605853
16	110	1.890707044307	25.916273941614
16	111	1.9	25.891096396004
16	115	1.927851431333	25.815638091256
16	116	1.990707044307	25.645342427017
16	117	2	25.620164881407
16	121	2.027851431333	25.54470657666
16	122	2.090707044307	25.37441091242
16	123	2.1	25.349233366811
16	127	2.115570372836	25.307048319858
16	128	2.127851431333	25.273775062063
16	129	2.172189097535	25.153650351485
16	130	2.190707044307	25.103479397824
16	131	2.2	25.078301852214
16	133	2.215570372836	25.036116805261
16	134	2.227851431333	25.002843547467
16	135	2.272189097535	24.882718836889
16	136	2.290707044307	24.832547883227
16	137	2.3	24.807370337617
16	139	2.315570372836	24.765185290664
16	140	2.327851431333	24.73191203287
16	141	2.372189097535	24.611787322292
16	142	2.390707044307	24.561616368631
16	143	2.4	24.536438823021
16	145	2.415570372836	24.494253776068
16	146	2.427851431333	24.460980518273
16	147	2.472189097535	24.340855807696
16	148	2.490707044307	24.290684854034
16	149	2.5	24.265507308424
16	151	2.515570372836	24.223322261471
16	152	2.527851431333	24.190049003677
16	153	2.554939140705	24.116659862406
16	154	2.572189097535	24.069924293099
16	155	2.590707044307	24.019753339437
16	156	2.6	23.994575793828
16	157	2.615570372836	23.952390746875
16	158	2.627851431333	23.91911748908
16	159	2.654939140705	23.845728347809
16	160	2.672189097535	23.798992778502
16	161	2.690707044307	23.748821824841
16	162	2.7	23.723644279231
16	163	2.715570372836	23.681459232278
16	164	2.727851431333	23.648185974484
16	165	2.754939140705	23.574796833213
16	166	2.772189097535	23.528061263906
16	167	2.790707044307	23.477890310244
16	168	2.8	23.452712764634
16	169	2.815570372836	23.410527717681
16	170	2.827851431333	23.377254459887
16	171	2.854939140705	23.303865318616
16	172	2.872189097535	23.257129749309
16	173	2.890707044307	23.206958795648
16	174	2.9	23.181781250038
16	175	2.915570372836	23.139596203085
16	176	2.927851431333	23.10632294529
16	177	2.954939140705	23.032933804019
16	178	2.972189097535	22.986198234713
16	179	2.990707044307	22.936027281051
16	180	3	22.910849735441
16	181	3.001068961981	22.907953580556
16	182	3.015570372836	22.868664688488
16	183	3.027851431333	22.835391430694
16	184	3.054939140705	22.762002289423
16	185	3.072189097535	22.715266720116
16	186	3.090707044307	22.665095766454
16	187	3.101068961981	22.637022065959
16	188	3.115570372836	22.597733173892
16	189	3.127851431333	22.564459916097
16	190	3.154939140705	22.491070774826
16	191	3.172189097535	22.444335205519
16	192	3.190707044307	22.394164251858
16	193	3.201068961981	22.366090551362
16	194	3.215570372836	22.326801659295
16	195	3.227851431333	22.293528401501
16	196	3.254939140705	22.22013926023
16	197	3.272189097535	22.173403690923
16	198	3.280481486003	22.15093699725
16	199	3.290707044307	22.123232737261
16	200	3.301068961981	22.095159036766
16	201	3.327851431333	22.022596886904
16	202	3.354939140705	21.949207745633
16	203	3.372189097535	21.902472176326
16	204	3.380481486003	21.880005482654
16	205	3.390707044307	21.852301222665
16	206	3.401068961981	21.824227522169
16	207	3.427851431333	21.751665372307
16	208	3.454939140705	21.678276231036
16	209	3.472189097535	21.63154066173
16	210	3.480481486003	21.609073968057
16	211	3.490707044307	21.581369708068
16	212	3.501068961981	21.553296007573
16	213	3.527851431333	21.480733857711
16	214	3.538007792423	21.453217074782
16	215	3.554939140705	21.40734471644
16	216	3.572189097535	21.360609147133
16	217	3.580481486003	21.33814245346
16	218	3.590707044307	21.310438193471
16	219	3.601068961981	21.282364492976
16	220	3.638007792423	21.182285560185
16	221	3.654939140705	21.136413201843
16	222	3.672189097535	21.089677632536
16	223	3.680481486003	21.067210938864
16	224	3.690707044307	21.039506678875
16	225	3.701068961981	21.011432978379
16	226	3.738007792423	20.911354045589
16	227	3.754939140705	20.865481687247
16	228	3.772189097535	20.81874611794
16	229	3.780481486003	20.796279424267
16	230	3.790707044307	20.768575164278
16	231	3.801068961981	20.740501463783
16	232	3.838007792423	20.640422530992
16	233	3.854939140705	20.59455017265
16	234	3.872189097535	20.547814603343
16	235	3.880481486003	20.525347909671
16	236	3.890707044307	20.497643649682
16	237	3.901068961981	20.469569949186
16	238	3.938007792423	20.369491016395
16	239	3.954939140705	20.323618658053
16	240	3.968805588386	20.286050081331
16	241	3.980481486003	20.254416395074
16	242	3.990707044307	20.226712135085
16	243	4.001068961981	20.19863843459
16	244	4.038007792423	20.098559501799
16	245	4.054939140705	20.052687143457
16	246	4.068805588386	20.015118566734
16	247	4.074385805496	20
16	248	4.080481486003	20
16	249	4.101068961981	20
16	250	4.138007792423	20
16	251	4.154939140705	20
16	252	4.168805588386	20
16	253	4.174385805496	20
16	254	4.180481486003	20
16	255	4.201068961981	20
16	256	4.238007792423	20
16	257	4.254939140705	20
16	258	4.268805588386	20
16	259	4.274385805496	20
16	260	4.280481486003	20
16	261	4.301068961981	20
16	262	4.338007792423	20
16	263	4.354939140705	20
16	264	4.368805588386	20
16	265	4.374385805496	20
16	266	4.380481486003	20
16	267	4.401068961981	20
16	268	4.438007792423	20
16	269	4.454939140705	20
16	270	4.468805588386	20
16	271	4.474385805496	20
16	272	4.480481486003	20
16	273	4.494202664544	20
16	274	4.501068961981	20
16	275	4.503207772412	20
16	276	4.538007792423	20
16	277	4.568805588386	20
16	278	4.574385805496	20
16	279	4.594202664544	20
16	280	4.601068961981	20
16	281	4.603207772412	20
16	282	4.638007792423	20
16	283	4.668805588386	20
16	284	4.674385805496	20
16	285	4.694202664544	20
16	286	4.701068961981	20
16	287	4.703207772412	20
16	288	4.738007792423	20
16	289	4.768805588386	20
16	290	4.774385805496	20
16	291	4.794202664544	20
16	292	4.801068961981	20
16	293	4.803207772412	20
16	294	4.838007792423	20
16	295	4.868805588386	20
16	296	4.874385805496	20
16	297	4.894202664544	20
16	298	4.901068961981	20
16	299	4.903207772412	20
16	300	4.938007792423	20
16	301	4.968805588386	20
16	302	4.974385805496	20
16	303	4.994202664544	20
16	304	5.001068961981	20
16	305	5.003207772412	20
16	306	5.038007792423	20
16	307	5.049771622903	20
16	308	5.068805588386	20
16	309	5.074385805496	20
16	310	5.094202664544	20
16	311	5.103207772412	20
16	312	5.138007792423	20
16	313	5.149771622903	20
16	314	5.168805588386	20
16	315	5.174385805496	20
16	316	5.194202664544	20
16	317	5.203207772412	20
16	318	5.220485709614	20
16	319	5.249771622903	20
16	320	5.268805588386	20
17	0	0	0
17	1	0.1	0
17	7	0.2	0
17	13	0.3	0
17	19	0.4	0
17	25	0.5	0
17	31	0.6	0
17	37	0.7	0
17	43	0.8	0
17	49	0.9	0
17	55	1	0
17	61	1.1	0
17	67	1.127851431333	0
17	68	1.2	0
17	73	1.227851431333	0
17	74	1.3	0
17	79	1.327851431333	0
17	80	1.4	0
17	85	1.427851431333	0
17	86	1.490707044307	0
17	87	1.5	0
17	91	1.527851431333	0
17	92	1.590707044307	0
17	93	1.6	0
17	97	1.627851431333	0
17	98	1.690707044307	0
17	99	1.7	0
17	103	1.727851431333	0
17	104	1.790707044307	0
17	105	1.8	0
17	109	1.827851431333	0
17	110	1.890707044307	0
17	111	1.9	0
17	115	1.927851431333	0
17	116	1.990707044307	0
17	117	2	0
17	121	2.027851431333	0
17	122	2.090707044307	0
17	123	2.1	0
17	127	2.115570372836	0
17	128	2.127851431333	0
17	129	2.172189097535	0
17	130	2.190707044307	0
17	131	2.2	0
17	133	2.215570372836	0
17	134	2.227851431333	0
17	135	2.272189097535	0
17	136	2.290707044307	0
17	137	2.3	0
17	139	2.315570372836	0
17	140	2.327851431333	0
17	141	2.372189097535	0
17	142	2.390707044307	0
17	143	2.4	0
17	145	2.415570372836	0
17	146	2.427851431333	0
17	147	2.472189097535	0
17	148	2.490707044307	0
17	149	2.5	0
17	151	2.515570372836	0
17	152	2.527851431333	0
17	153	2.554939140705	0
17	154	2.572189097535	0
17	155	2.590707044307	0
17	156	2.6	0
17	157	2.615570372836	0
17	158	2.627851431333	0
17	159	2.654939140705	0
17	160	2.672189097535	0
17	161	2.690707044307	0
17	162	2.7	0
17	163	2.715570372836	0
17	164	2.727851431333	0
17	165	2.754939140705	0
17	166	2.772189097535	0
17	167	2.790707044307	0
17	168	2.8	0
17	169	2.815570372836	0
17	170	2.827851431333	0
17	171	2.854939140705	0
17	172	2.872189097535	0
17	173	2.890707044307	0
17	174	2.9	0
17	175	2.915570372836	0
17	176	2.927851431333	0
17	177	2.954939140705	0
17	178	2.972189097535	0
17	179	2.990707044307	0
17	180	3	0
17	181	3.001068961981	0
17	182	3.015570372836	0
17	183	3.027851431333	0
17	184	3.054939140705	0
17	185	3.072189097535	0
17	186	3.090707044307	0
17	187	3.101068961981	0
17	188	3.115570372836	0
17	189	3.127851431333	0
17	190	3.154939140705	0
17	191	3.172189097535	0
17	192	3.190707044307	0
17	193	3.201068961981	0
17	194	3.215570372836	0
17	195	3.227851431333	0
17	196	3.254939140705	0
17	197	3.272189097535	0
17	198	3.280481486003	0
17	199	3.290707044307	0
17	200	3.301068961981	0
17	201	3.327851431333	0
17	202	3.354939140705	0
17	203	3.372189097535	0
17	204	3.380481486003	0
17	205	3.390707044307	0
17	206	3.401068961981	0
17	207	3.427851431333	0
17	208	3.454939140705	0
17	209	3.472189097535	0
17	210	3.480481486003	0
17	211	3.490707044307	0
17	212	3.501068961981	0
17	213	3.527851431333	0
17	214	3.538007792423	0
17	215	3.554939140705	0
17	216	3.572189097535	0
17	217	3.580481486003	0
17	218	3.590707044307	0
17	219	3.601068961981	0
17	220	3.638007792423	0
17	221	3.654939140705	0
17	222	3.672189097535	0
17	223	3.680481486003	0
17	224	3.690707044307	0
17	225	3.701068961981	0
17	226	3.738007792423	0
17	227	3.754939140705	0
17	228	3.772189097535	0
17	229	3.780481486003	0
17	230	3.790707044307	0
17	231	3.801068961981	0
17	232	3.838007792423	0
17	233	3.854939140705	0
17	234	3.872189097535	0
17	235	3.880481486003	0
17	236	3.890707044307	0
17	237	3.901068961981	0
17	238	3.938007792423	0
17	239	3.954939140705	0
17	240	3.968805588386	0
17	241	3.980481486003	0
17	242	3.990707044307	0
17	243	4.001068961981	0
17	244	4.038007792423	0
17	245	4.054939140705	0
17	246	4.068805588386	0
17	247	4.074385805496	0
17	248	4.080481486003	0
17	249	4.101068961981	0
17	250	4.138007792423	0
17	251	4.154939140705	0
17	252	4.168805588386	0
17	253	4.174385805496	0
17	254	4.180481486003	0
17	255	4.201068961981	0
17	256	4.238007792423	0
17	257	4.254939140705	0
17	258	4.268805588386	0
17	259	4.274385805496	0
17	260	4.280481486003	0
17	261	4.301068961981	0
17	262	4.338007792423	0
17	263	4.354939140705	0
17	264	4.368805588386	0
17	265	4.374385805496	0
17	266	4.380481486003	0
17	267	4.401068961981	0
17	268	4.438007792423	0
17	269	4.454939140705	0
17	270	4.468805588386	0
17	271	4.474385805496	0
17	272	4.480481486003	0
17	273	4.494202664544	0
17	274	4.501068961981	0
17	275	4.503207772412	0
17	276	4.538007792423	0
17	277	4.568805588386	0
17	278	4.574385805496	0
17	279	4.594202664544	0
17	280	4.601068961981	0
17	281	4.603207772412	0
17	282	4.638007792423	0
17	283	4.668805588386	0
17	284	4.674385805496	0
17	285	4.694202664544	0
17	286	4.701068961981	0
17	287	4.703207772412	0
17	288	4.738007792423	0
17	289	4.768805588386	0
17	290	4.774385805496	0
17	291	4.794202664544	0
17	292	4.801068961981	0
17	293	4.803207772412	0
17	294	4.838007792423	0
17	295	4.868805588386	0
17	296	4.874385805496	0
17	297	4.894202664544	0
17	298	4.901068961981	0
17	299	4.903207772412	0
17	300	4.938007792423	0
17	301	4.968805588386	0
17	302	4.974385805496	0
17	303	4.994202664544	0
17	304	5.001068961981	0
17	305	5.003207772412	0
17	306	5.038007792423	0
17	307	5.049771622903	0
17	308	5.068805588386	0
17	309	5.074385805496	0
17	310	5.094202664544	0
17	311	5.103207772412	0
17	312	5.138007792423	0
17	313	5.149771622903	0
17	314	5.168805588386	0
17	315	5.174385805496	0
17	316	5.194202664544	0
17	317	5.203207772412	0
17	318	5.220485709614	0
17	319	5.249771622903	0
17	320	5.268805588386	0
18	0	0	0
18	0	0	0
18	0	0	2
19	0	0	0
20	0	0	1
21	0	0	31

