version 2
run DroneMassMobility-0-20210426-20:35:48-29795
attr configname DroneMassMobility
attr datetime 20210426-20:35:48
attr experiment DroneMassMobility
attr inifile omnetpp.ini
attr iterationvars ""
attr iterationvarsf ""
attr measurement ""
attr network ParcelDeliveryNetwork
attr processid 29795
attr repetition 0
attr replication #0
attr resultdir results
attr runnumber 0
attr seedset 0
param *.numdrones 20
param *.drone[0].mobility.ndst 20
param *.drone[*].mobility.typename "\"DroneMobility\""
param **.drone*.mobility.initFromDisplayString false
param **.drone*.mobility.changeInterval "truncnormal(2s, 0.5s)"
param *.drone[*].mobility.angleDelta "normal(0deg, 30deg)"
param **.drone*.mobility.speed "truncnormal(15mps, 5mps)"
param **.drone*.mobility.initialX 2m
param **.drone*.mobility.initialY 2m
param **.drone*.mobility.initialZ 0m
param *.numdrones 2
param **.constraintAreaMinX 0m
param **.constraintAreaMinY 0m
param **.constraintAreaMinZ 0m
param **.constraintAreaMaxX 600m
param **.constraintAreaMaxY 400m
param **.constraintAreaMaxZ 0m
param **.updateInterval 0.1s
param **.mobility.initFromDisplayString false

vector 0 ParcelDeliveryNetwork.drone[0] coordX:vector ETV
attr interpolationmode linear
attr source xCoord(mobilityPos(mobilityStateChanged))
attr title "coord X, vector"
vector 1 ParcelDeliveryNetwork.drone[0] coordY:vector ETV
attr interpolationmode linear
attr source yCoord(mobilityPos(mobilityStateChanged))
attr title "coord Y, vector"
vector 2 ParcelDeliveryNetwork.drone[0] coordZ:vector ETV
attr interpolationmode linear
attr source zCoord(mobilityPos(mobilityStateChanged))
attr title "coord Z, vector"
vector 3 ParcelDeliveryNetwork.drone[1] coordX:vector ETV
attr interpolationmode linear
attr source xCoord(mobilityPos(mobilityStateChanged))
attr title "coord X, vector"
vector 4 ParcelDeliveryNetwork.drone[1] coordY:vector ETV
attr interpolationmode linear
attr source yCoord(mobilityPos(mobilityStateChanged))
attr title "coord Y, vector"
vector 5 ParcelDeliveryNetwork.drone[1] coordZ:vector ETV
attr interpolationmode linear
attr source zCoord(mobilityPos(mobilityStateChanged))
attr title "coord Z, vector"
vector 6 ParcelDeliveryNetwork.drone[2] coordX:vector ETV
attr interpolationmode linear
attr source xCoord(mobilityPos(mobilityStateChanged))
attr title "coord X, vector"
vector 7 ParcelDeliveryNetwork.drone[2] coordY:vector ETV
attr interpolationmode linear
attr source yCoord(mobilityPos(mobilityStateChanged))
attr title "coord Y, vector"
vector 8 ParcelDeliveryNetwork.drone[2] coordZ:vector ETV
attr interpolationmode linear
attr source zCoord(mobilityPos(mobilityStateChanged))
attr title "coord Z, vector"
vector 9 ParcelDeliveryNetwork.drone[3] coordX:vector ETV
attr interpolationmode linear
attr source xCoord(mobilityPos(mobilityStateChanged))
attr title "coord X, vector"
vector 10 ParcelDeliveryNetwork.drone[3] coordY:vector ETV
attr interpolationmode linear
attr source yCoord(mobilityPos(mobilityStateChanged))
attr title "coord Y, vector"
vector 11 ParcelDeliveryNetwork.drone[3] coordZ:vector ETV
attr interpolationmode linear
attr source zCoord(mobilityPos(mobilityStateChanged))
attr title "coord Z, vector"
vector 12 ParcelDeliveryNetwork.drone[4] coordX:vector ETV
attr interpolationmode linear
attr source xCoord(mobilityPos(mobilityStateChanged))
attr title "coord X, vector"
vector 13 ParcelDeliveryNetwork.drone[4] coordY:vector ETV
attr interpolationmode linear
attr source yCoord(mobilityPos(mobilityStateChanged))
attr title "coord Y, vector"
vector 14 ParcelDeliveryNetwork.drone[4] coordZ:vector ETV
attr interpolationmode linear
attr source zCoord(mobilityPos(mobilityStateChanged))
attr title "coord Z, vector"
vector 15 ParcelDeliveryNetwork.drone[5] coordX:vector ETV
attr interpolationmode linear
attr source xCoord(mobilityPos(mobilityStateChanged))
attr title "coord X, vector"
vector 16 ParcelDeliveryNetwork.drone[5] coordY:vector ETV
attr interpolationmode linear
attr source yCoord(mobilityPos(mobilityStateChanged))
attr title "coord Y, vector"
vector 17 ParcelDeliveryNetwork.drone[5] coordZ:vector ETV
attr interpolationmode linear
attr source zCoord(mobilityPos(mobilityStateChanged))
attr title "coord Z, vector"
vector 18 ParcelDeliveryNetwork.drone[6] coordX:vector ETV
attr interpolationmode linear
attr source xCoord(mobilityPos(mobilityStateChanged))
attr title "coord X, vector"
vector 19 ParcelDeliveryNetwork.drone[6] coordY:vector ETV
attr interpolationmode linear
attr source yCoord(mobilityPos(mobilityStateChanged))
attr title "coord Y, vector"
vector 20 ParcelDeliveryNetwork.drone[6] coordZ:vector ETV
attr interpolationmode linear
attr source zCoord(mobilityPos(mobilityStateChanged))
attr title "coord Z, vector"
vector 21 ParcelDeliveryNetwork.drone[7] coordX:vector ETV
attr interpolationmode linear
attr source xCoord(mobilityPos(mobilityStateChanged))
attr title "coord X, vector"
vector 22 ParcelDeliveryNetwork.drone[7] coordY:vector ETV
attr interpolationmode linear
attr source yCoord(mobilityPos(mobilityStateChanged))
attr title "coord Y, vector"
vector 23 ParcelDeliveryNetwork.drone[7] coordZ:vector ETV
attr interpolationmode linear
attr source zCoord(mobilityPos(mobilityStateChanged))
attr title "coord Z, vector"
vector 24 ParcelDeliveryNetwork.drone[8] coordX:vector ETV
attr interpolationmode linear
attr source xCoord(mobilityPos(mobilityStateChanged))
attr title "coord X, vector"
vector 25 ParcelDeliveryNetwork.drone[8] coordY:vector ETV
attr interpolationmode linear
attr source yCoord(mobilityPos(mobilityStateChanged))
attr title "coord Y, vector"
vector 26 ParcelDeliveryNetwork.drone[8] coordZ:vector ETV
attr interpolationmode linear
attr source zCoord(mobilityPos(mobilityStateChanged))
attr title "coord Z, vector"
vector 27 ParcelDeliveryNetwork.drone[9] coordX:vector ETV
attr interpolationmode linear
attr source xCoord(mobilityPos(mobilityStateChanged))
attr title "coord X, vector"
vector 28 ParcelDeliveryNetwork.drone[9] coordY:vector ETV
attr interpolationmode linear
attr source yCoord(mobilityPos(mobilityStateChanged))
attr title "coord Y, vector"
vector 29 ParcelDeliveryNetwork.drone[9] coordZ:vector ETV
attr interpolationmode linear
attr source zCoord(mobilityPos(mobilityStateChanged))
attr title "coord Z, vector"
vector 30 ParcelDeliveryNetwork.drone[10] coordX:vector ETV
attr interpolationmode linear
attr source xCoord(mobilityPos(mobilityStateChanged))
attr title "coord X, vector"
vector 31 ParcelDeliveryNetwork.drone[10] coordY:vector ETV
attr interpolationmode linear
attr source yCoord(mobilityPos(mobilityStateChanged))
attr title "coord Y, vector"
vector 32 ParcelDeliveryNetwork.drone[10] coordZ:vector ETV
attr interpolationmode linear
attr source zCoord(mobilityPos(mobilityStateChanged))
attr title "coord Z, vector"
vector 33 ParcelDeliveryNetwork.drone[11] coordX:vector ETV
attr interpolationmode linear
attr source xCoord(mobilityPos(mobilityStateChanged))
attr title "coord X, vector"
vector 34 ParcelDeliveryNetwork.drone[11] coordY:vector ETV
attr interpolationmode linear
attr source yCoord(mobilityPos(mobilityStateChanged))
attr title "coord Y, vector"
vector 35 ParcelDeliveryNetwork.drone[11] coordZ:vector ETV
attr interpolationmode linear
attr source zCoord(mobilityPos(mobilityStateChanged))
attr title "coord Z, vector"
vector 36 ParcelDeliveryNetwork.drone[12] coordX:vector ETV
attr interpolationmode linear
attr source xCoord(mobilityPos(mobilityStateChanged))
attr title "coord X, vector"
vector 37 ParcelDeliveryNetwork.drone[12] coordY:vector ETV
attr interpolationmode linear
attr source yCoord(mobilityPos(mobilityStateChanged))
attr title "coord Y, vector"
vector 38 ParcelDeliveryNetwork.drone[12] coordZ:vector ETV
attr interpolationmode linear
attr source zCoord(mobilityPos(mobilityStateChanged))
attr title "coord Z, vector"
vector 39 ParcelDeliveryNetwork.drone[13] coordX:vector ETV
attr interpolationmode linear
attr source xCoord(mobilityPos(mobilityStateChanged))
attr title "coord X, vector"
vector 40 ParcelDeliveryNetwork.drone[13] coordY:vector ETV
attr interpolationmode linear
attr source yCoord(mobilityPos(mobilityStateChanged))
attr title "coord Y, vector"
vector 41 ParcelDeliveryNetwork.drone[13] coordZ:vector ETV
attr interpolationmode linear
attr source zCoord(mobilityPos(mobilityStateChanged))
attr title "coord Z, vector"
vector 42 ParcelDeliveryNetwork.drone[14] coordX:vector ETV
attr interpolationmode linear
attr source xCoord(mobilityPos(mobilityStateChanged))
attr title "coord X, vector"
vector 43 ParcelDeliveryNetwork.drone[14] coordY:vector ETV
attr interpolationmode linear
attr source yCoord(mobilityPos(mobilityStateChanged))
attr title "coord Y, vector"
vector 44 ParcelDeliveryNetwork.drone[14] coordZ:vector ETV
attr interpolationmode linear
attr source zCoord(mobilityPos(mobilityStateChanged))
attr title "coord Z, vector"
vector 45 ParcelDeliveryNetwork.drone[15] coordX:vector ETV
attr interpolationmode linear
attr source xCoord(mobilityPos(mobilityStateChanged))
attr title "coord X, vector"
vector 46 ParcelDeliveryNetwork.drone[15] coordY:vector ETV
attr interpolationmode linear
attr source yCoord(mobilityPos(mobilityStateChanged))
attr title "coord Y, vector"
vector 47 ParcelDeliveryNetwork.drone[15] coordZ:vector ETV
attr interpolationmode linear
attr source zCoord(mobilityPos(mobilityStateChanged))
attr title "coord Z, vector"
vector 48 ParcelDeliveryNetwork.drone[16] coordX:vector ETV
attr interpolationmode linear
attr source xCoord(mobilityPos(mobilityStateChanged))
attr title "coord X, vector"
vector 49 ParcelDeliveryNetwork.drone[16] coordY:vector ETV
attr interpolationmode linear
attr source yCoord(mobilityPos(mobilityStateChanged))
attr title "coord Y, vector"
vector 50 ParcelDeliveryNetwork.drone[16] coordZ:vector ETV
attr interpolationmode linear
attr source zCoord(mobilityPos(mobilityStateChanged))
attr title "coord Z, vector"
vector 51 ParcelDeliveryNetwork.drone[17] coordX:vector ETV
attr interpolationmode linear
attr source xCoord(mobilityPos(mobilityStateChanged))
attr title "coord X, vector"
vector 52 ParcelDeliveryNetwork.drone[17] coordY:vector ETV
attr interpolationmode linear
attr source yCoord(mobilityPos(mobilityStateChanged))
attr title "coord Y, vector"
vector 53 ParcelDeliveryNetwork.drone[17] coordZ:vector ETV
attr interpolationmode linear
attr source zCoord(mobilityPos(mobilityStateChanged))
attr title "coord Z, vector"
vector 54 ParcelDeliveryNetwork.drone[18] coordX:vector ETV
attr interpolationmode linear
attr source xCoord(mobilityPos(mobilityStateChanged))
attr title "coord X, vector"
vector 55 ParcelDeliveryNetwork.drone[18] coordY:vector ETV
attr interpolationmode linear
attr source yCoord(mobilityPos(mobilityStateChanged))
attr title "coord Y, vector"
vector 56 ParcelDeliveryNetwork.drone[18] coordZ:vector ETV
attr interpolationmode linear
attr source zCoord(mobilityPos(mobilityStateChanged))
attr title "coord Z, vector"
vector 57 ParcelDeliveryNetwork.drone[19] coordX:vector ETV
attr interpolationmode linear
attr source xCoord(mobilityPos(mobilityStateChanged))
attr title "coord X, vector"
vector 58 ParcelDeliveryNetwork.drone[19] coordY:vector ETV
attr interpolationmode linear
attr source yCoord(mobilityPos(mobilityStateChanged))
attr title "coord Y, vector"
vector 59 ParcelDeliveryNetwork.drone[19] coordZ:vector ETV
attr interpolationmode linear
attr source zCoord(mobilityPos(mobilityStateChanged))
attr title "coord Z, vector"
vector 60 ParcelDeliveryNetwork.gcs.wlan[0].radio radioMode:vector ETV
attr interpolationmode sample-hold
attr source radioModeChanged
attr title "Radio mode, vector"
vector 61 ParcelDeliveryNetwork.gcs.wlan[0].radio radioChannel:vector ETV
attr interpolationmode sample-hold
attr source radioChannelChanged
attr title "Radio channel, vector"
vector 62 ParcelDeliveryNetwork.gcs.wlan[0].radio receptionState:vector ETV
attr interpolationmode sample-hold
attr source receptionStateChanged
attr title "Radio reception state, vector"
vector 63 ParcelDeliveryNetwork.gcs.wlan[0].mac.dcf.recoveryProcedure contentionWindowChanged:vector ETV
attr interpolationmode sample-hold
attr title "contention window, vector"
0	0	0	2
0	0	0.1	41.265276375809
1	0	0	2
1	0	0.1	7.6769074278277
2	0	0	0
2	0	0.1	0
3	0	0	2
3	0	0.1	9.1549846504891
4	0	0	2
4	0	0.1	6.6200758028873
5	0	0	0
5	0	0.1	0
6	0	0	2
6	0	0.1	22.680722671701
7	0	0	2
7	0	0.1	13.652589931771
8	0	0	0
8	0	0.1	0
9	0	0	2
9	0	0.1	26.46234695266
10	0	0	2
10	0	0.1	5.7698822358551
11	0	0	0
11	0	0.1	0
12	0	0	2
12	0	0.1	11.091297742747
13	0	0	2
13	0	0.1	10.060705286079
14	0	0	0
14	0	0.1	0
15	0	0	2
15	0	0.1	18.087712192275
16	0	0	2
16	0	0.1	3.1172022355746
17	0	0	0
17	0	0.1	0
18	0	0	2
18	0	0.1	14.967861490334
19	0	0	2
19	0	0.1	4.566555919962
20	0	0	0
20	0	0.1	0
21	0	0	2
21	0	0.1	27.636879553983
22	0	0	2
22	0	0.1	16.806326159519
23	0	0	0
23	0	0.1	0
24	0	0	2
24	0	0.1	19.926945592242
25	0	0	2
25	0	0.1	9.4640070867328
26	0	0	0
26	0	0.1	0
27	0	0	2
27	0	0.1	9.826206300037
28	0	0	2
28	0	0.1	8.168892024735
29	0	0	0
29	0	0.1	0
30	0	0	2
30	0	0.1	2.7979774418837
31	0	0	2
31	0	0.1	16.718250594744
32	0	0	0
32	0	0.1	0
33	0	0	2
33	0	0.1	28.706745719954
34	0	0	2
34	0	0.1	3.2762515653783
35	0	0	0
35	0	0.1	0
36	0	0	2
36	0	0.1	9.0451775986465
37	0	0	2
37	0	0.1	14.837879179756
38	0	0	0
38	0	0.1	0
39	0	0	2
39	0	0.1	6.0249356994146
40	0	0	2
40	0	0.1	23.533405991868
41	0	0	0
41	0	0.1	0
42	0	0	2
42	0	0.1	4.6969204591607
43	0	0	2
43	0	0.1	15.8165309677
44	0	0	0
44	0	0.1	0
45	0	0	2
45	0	0.1	14.65637218187
46	0	0	2
46	0	0.1	9.7409004170457
47	0	0	0
47	0	0.1	0
48	0	0	2
48	0	0.1	20.885561096751
49	0	0	2
49	0	0.1	23.975925639856
50	0	0	0
50	0	0.1	0
51	0	0	2
51	0	0.1	16.861268465455
52	0	0	2
52	0	0.1	11.183929950562
53	0	0	0
53	0	0.1	0
54	0	0	2
54	0	0.1	11.803576205641
55	0	0	2
55	0	0.1	4.7716917021185
56	0	0	0
56	0	0.1	0
57	0	0	2
57	0	0.1	12.201578002829
58	0	0	2
58	0	0.1	3.9524551201587
59	0	0	0
59	0	0.1	0
60	0	0	0
60	0	0	0
60	0	0	2
61	0	0	0
62	0	0	1
63	0	0	31
0	21	0.2	80.530552751617
0	41	0.3	119.79582912743
0	61	0.4	159.06110550323
0	81	0.5	198.32638187904
0	101	0.6	237.59165825485
0	121	0.7	276.85693463066
0	141	0.8	316.12221100647
0	161	0.9	355.38748738228
0	181	1	394.65276375809
0	201	1.1	433.91804013389
0	221	1.127851431333	444.85398162142
0	222	1.164911113167	459.40556811753
0	223	1.2	473.1833165097
0	241	1.227851431333	484.11925799722
0	242	1.264911113167	498.67084449334
0	243	1.3	512.44859288551
0	261	1.327851431333	523.38453437303
0	262	1.364911113167	537.93612086915
0	263	1.4	551.71386926132
0	281	1.427851431333	562.64981074884
0	282	1.464911113167	577.20139724496
0	283	1.479678875654	583
0	284	1.490707044307	580.17443442504
0	285	1.5	577.79345381783
0	301	1.527851431333	570.65754140443
0	302	1.564911113167	561.16235099666
0	303	1.579678875654	557.37865103563
0	304	1.590707044307	554.55308546067
0	305	1.6	552.17210485346
0	321	1.627851431333	545.03619244006
0	322	1.664911113167	535.54100203229
0	323	1.679678875654	531.75730207126
0	324	1.690707044307	528.9317364963
0	325	1.7	526.55075588909
0	341	1.727851431333	519.41484347569
0	342	1.764911113167	509.91965306792
0	343	1.779678875654	506.1359531069
0	344	1.790707044307	503.31038753193
0	345	1.796616490851	501.79630761103
0	346	1.8	500.92940692472
0	361	1.827851431333	493.79349451132
0	362	1.864911113167	484.29830410355
0	363	1.879678875654	480.51460414253
0	364	1.890707044307	477.68903856756
0	365	1.896616490851	476.17495864666
0	366	1.9	475.30805796036
0	381	1.927851431333	468.17214554696
0	382	1.948268631707	462.94098339038
0	383	1.964911113167	458.67695513918
0	384	1.979678875654	454.89325517816
0	385	1.990707044307	452.0676896032
0	386	1.996616490851	450.55360968229
0	387	2	449.68670899599
0	401	2.027851431333	442.55079658259
0	402	2.048268631707	437.31963442601
0	403	2.048702660922	437.20843028623
0	404	2.064911113167	433.05560617481
0	405	2.079678875654	429.27190621379
0	406	2.090707044307	426.44634063883
0	407	2.096616490851	424.93226071793
0	408	2.1	424.06536003162
0	421	2.115570372836	420.07602047225
0	422	2.127851431333	416.92944761822
0	423	2.148268631707	411.69828546164
0	424	2.148702660922	411.58708132186
0	425	2.164911113167	407.43425721045
0	426	2.172189097535	405.56953943795
0	427	2.179678875654	403.65055724942
0	428	2.188253834944	401.45353700618
0	429	2.190707044307	400.82499167446
0	430	2.196616490851	399.31091175356
0	431	2.2	398.44401106725
0	441	2.215570372836	394.45467150789
0	442	2.220875047244	393.09554236639
0	443	2.227851431333	391.30809865385
0	444	2.237732722325	388.77637860661
0	445	2.248268631707	386.07693649728
0	446	2.248702660922	385.96573235749
0	447	2.264911113167	381.81290824608
0	448	2.272189097535	379.94819047358
0	449	2.279678875654	378.02920828506
0	450	2.288253834944	375.83218804181
0	451	2.290707044307	375.20364271009
0	452	2.296616490851	373.68956278919
0	453	2.3	372.82266210288
0	461	2.315570372836	368.83332254352
0	462	2.320875047244	367.47419340202
0	463	2.327851431333	365.68674968948
0	464	2.337732722325	363.15502964224
0	465	2.341572609874	362.17119865347
0	466	2.348268631707	360.45558753291
0	467	2.348702660922	360.34438339312
0	468	2.364911113167	356.19155928171
0	469	2.372189097535	354.32684150921
0	470	2.379678875654	352.40785932069
0	471	2.387342478341	350.44434093301
0	472	2.388253834944	350.21083907744
0	473	2.390707044307	349.58229374572
0	474	2.396616490851	348.06821382482
0	475	2.4	347.20131313852
0	482	2.41015636109	344.59911642157
0	483	2.415570372836	343.21197357915
0	484	2.420875047244	341.85284443765
0	485	2.437732722325	337.53368067787
0	486	2.441572609874	336.5498496891
0	487	2.445847315522	335.45461243783
0	488	2.448268631707	334.83423856854
0	489	2.448702660922	334.72303442876
0	490	2.464911113167	330.57021031734
0	491	2.472189097535	328.70549254484
0	492	2.479678875654	326.78651035632
0	493	2.487342478341	324.82299196864
0	494	2.488253834944	324.58949011308
0	495	2.490707044307	323.96094478135
0	496	2.496616490851	322.44686486045
0	497	2.5	321.57996417415
0	502	2.51015636109	318.9777674572
0	503	2.515570372836	317.59062461478
0	504	2.520875047244	316.23149547329
0	505	2.537732722325	311.9123317135
0	506	2.541572609874	310.92850072473
0	507	2.545847315522	309.83326347346
0	508	2.548268631707	309.21288960417
0	509	2.548702660922	309.10168546439
0	510	2.554939140705	307.50381521609
0	511	2.564911113167	304.94886135297
0	512	2.572189097535	303.08414358048
0	513	2.579678875654	301.16516139195
0	514	2.583678761189	300.14033676085
0	515	2.587342478341	299.20164300427
0	516	2.588253834944	298.96814114871
0	517	2.590707044307	298.33959581699
0	518	2.596616490851	296.82551589609
0	519	2.6	295.95861520978
0	522	2.61015636109	293.35641849283
0	523	2.615570372836	291.96927565041
0	524	2.620875047244	290.61014650892
0	525	2.637732722325	286.29098274913
0	526	2.641572609874	285.30715176037
0	527	2.645847315522	284.21191450909
0	528	2.648268631707	283.5915406398
0	529	2.648702660922	283.48033650002
0	530	2.654939140705	281.88246625173
0	531	2.664911113167	279.32751238861
0	532	2.672189097535	277.46279461611
0	533	2.679678875654	275.54381242758
0	534	2.683678761189	274.51898779649
0	535	2.687342478341	273.5802940399
0	536	2.688253834944	273.34679218434
0	537	2.690707044307	272.71824685262
0	538	2.696616490851	271.20416693172
0	539	2.7	270.33726624541
0	542	2.71015636109	267.73506952846
0	543	2.715570372836	266.34792668605
0	544	2.716883848591	266.0113964793
0	545	2.720875047244	264.98879754455
0	546	2.737732722325	260.66963378477
0	547	2.741572609874	259.685802796
0	548	2.745847315522	258.59056554472
0	549	2.748268631707	257.97019167543
0	550	2.748702660922	257.85898753565
0	551	2.754939140705	256.26111728736
0	552	2.764911113167	253.70616342424
0	553	2.772189097535	251.84144565174
0	554	2.779678875654	249.92246346321
0	555	2.783678761189	248.89763883212
0	556	2.787342478341	247.95894507554
0	557	2.788253834944	247.72544321997
0	558	2.790707044307	247.09689788825
0	559	2.796616490851	245.58281796735
0	560	2.8	244.71591728104
0	562	2.81015636109	242.11372056409
0	563	2.815570372836	240.72657772168
0	564	2.816883848591	240.39004751493
0	565	2.820875047244	239.36744858018
0	566	2.837732722325	235.0482848204
0	567	2.841572609874	234.06445383163
0	568	2.845847315522	232.96921658036
0	569	2.847389030358	232.57420844219
0	570	2.848268631707	232.34884271107
0	571	2.848702660922	232.23763857128
0	572	2.854939140705	230.63976832299
0	573	2.857733790941	229.92374123369
0	574	2.872189097535	226.22009668737
0	575	2.879678875654	224.30111449885
0	576	2.883678761189	223.27628986775
0	577	2.887342478341	222.33759611117
0	578	2.888253834944	222.1040942556
0	579	2.890707044307	221.47554892388
0	580	2.896616490851	219.96146900298
0	581	2.9	219.09456831667
0	582	2.91015636109	216.49237159972
0	583	2.915570372836	215.10522875731
0	584	2.916883848591	214.76869855056
0	585	2.920875047244	213.74609961581
0	586	2.937732722325	209.42693585603
0	587	2.941572609874	208.44310486726
0	588	2.945847315522	207.34786761599
0	589	2.947389030358	206.95285947782
0	590	2.948268631707	206.7274937467
0	591	2.948702660922	206.61628960692
0	592	2.954939140705	205.01841935862
0	593	2.957733790941	204.30239226932
0	594	2.972189097535	200.598747723
0	595	2.979678875654	198.67976553448
0	596	2.983678761189	197.65494090338
0	597	2.987342478341	196.7162471468
0	598	2.988253834944	196.48274529124
0	599	2.990707044307	195.85419995951
0	600	2.996616490851	194.34012003861
0	601	3	193.47321935231
0	602	3.001068961981	193.19933687286
0	603	3.01015636109	190.87102263536
0	604	3.015570372836	189.48387979294
0	605	3.016883848591	189.14734958619
0	606	3.020875047244	188.12475065144
0	607	3.037732722325	183.80558689166
0	608	3.041572609874	182.82175590289
0	609	3.045847315522	181.72651865162
0	610	3.047389030358	181.33151051345
0	611	3.048268631707	181.10614478233
0	612	3.048702660922	180.99494064255
0	613	3.054939140705	179.39707039425
0	614	3.057733790941	178.68104330495
0	615	3.072189097535	174.97739875864
0	616	3.079678875654	173.05841657011
0	617	3.083678761189	172.03359193901
0	618	3.087342478341	171.09489818243
0	619	3.088253834944	170.86139632687
0	620	3.090707044307	170.23285099515
0	621	3.096616490851	168.71877107425
0	622	3.101068961981	167.57798790849
0	623	3.11015636109	165.24967367099
0	624	3.115570372836	163.86253082857
0	625	3.116883848591	163.52600062182
0	626	3.120875047244	162.50340168708
0	627	3.137732722325	158.18423792729
0	628	3.141572609874	157.20040693853
0	629	3.145847315522	156.10516968725
0	630	3.147389030358	155.71016154909
0	631	3.148268631707	155.48479581796
0	632	3.148702660922	155.37359167818
0	633	3.154939140705	153.77572142989
0	634	3.157733790941	153.05969434059
0	635	3.163607854825	151.55467993448
0	636	3.172189097535	149.35604979427
0	637	3.179678875654	147.43706760574
0	638	3.183678761189	146.41224297464
0	639	3.187342478341	145.47354921806
0	640	3.188253834944	145.2400473625
0	641	3.196616490851	143.09742210988
0	642	3.201068961981	141.95663894412
0	643	3.21015636109	139.62832470662
0	644	3.215570372836	138.24118186421
0	645	3.216883848591	137.90465165745
0	646	3.220875047244	136.88205272271
0	647	3.237732722325	132.56288896293
0	648	3.241572609874	131.57905797416
0	649	3.245847315522	130.48382072288
0	650	3.247389030358	130.08881258472
0	651	3.248268631707	129.86344685359
0	652	3.248702660922	129.75224271381
0	653	3.254939140705	128.15437246552
0	654	3.257733790941	127.43834537622
0	655	3.263607854825	125.93333097011
0	656	3.272189097535	123.7347008299
0	657	3.279678875654	121.81571864137
0	658	3.283678761189	120.79089401028
0	659	3.287342478341	119.8522002537
0	660	3.288253834944	119.61869839813
0	661	3.296616490851	117.47607314551
0	662	3.301068961981	116.33528997975
0	663	3.31015636109	114.00697574225
0	664	3.315570372836	112.61983289984
0	665	3.316883848591	112.28330269309
0	666	3.320875047244	111.26070375834
0	667	3.337732722325	106.94153999856
0	668	3.341572609874	105.95770900979
0	669	3.345847315522	104.86247175852
0	670	3.347389030358	104.46746362035
0	671	3.348268631707	104.24209788923
0	672	3.348702660922	104.13089374944
0	673	3.354939140705	102.53302350115
0	674	3.357733790941	101.81699641185
0	675	3.363607854825	100.31198200574
0	676	3.372189097535	98.113351865532
0	677	3.379678875654	96.194369677006
0	678	3.383678761189	95.169545045909
0	679	3.387342478341	94.230851289327
0	680	3.388253834944	93.997349433763
0	681	3.396616490851	91.854724181141
0	682	3.401068961981	90.713941015386
0	683	3.41015636109	88.385626777884
0	684	3.415570372836	86.99848393547
0	685	3.416883848591	86.661953728719
0	686	3.420875047244	85.639354793973
0	687	3.437732722325	81.32019103419
0	688	3.441572609874	80.336360045422
0	689	3.445847315522	79.241122794148
0	690	3.447389030358	78.846114655981
0	691	3.448268631707	78.620748924858
0	692	3.448702660922	78.509544785076
0	693	3.454939140705	76.911674536781
0	694	3.457733790941	76.195647447482
0	695	3.463607854825	74.690633041373
0	696	3.472189097535	72.492002901164
0	697	3.479678875654	70.573020712638
0	698	3.483678761189	69.548196081541
0	699	3.487342478341	68.609502324959
0	700	3.488253834944	68.376000469395
0	701	3.496616490851	66.233375216773
0	702	3.501068961981	65.092592051018
0	703	3.51015636109	62.764277813516
0	704	3.515570372836	61.377134971102
0	705	3.516883848591	61.040604764351
0	706	3.520875047244	60.018005829604
0	707	3.537732722325	55.698842069822
0	708	3.541572609874	54.715011081053
0	709	3.545847315522	53.61977382978
0	710	3.547389030358	53.224765691613
0	711	3.548268631707	52.99939996049
0	712	3.548702660922	52.888195820708
0	713	3.552461387906	51.925159263519
0	714	3.554939140705	51.290325572413
0	715	3.557733790941	50.574298483114
0	716	3.563607854825	49.069284077004
0	717	3.572189097535	46.870653936796
0	718	3.57964099989	44.961376029937
0	719	3.579678875654	44.95167174827
0	720	3.583678761189	43.926847117172
0	721	3.587342478341	42.988153360591
0	722	3.601068961981	39.47124308665
0	723	3.61015636109	37.142928849148
0	724	3.615570372836	35.755786006734
0	725	3.616883848591	35.419255799983
0	726	3.620875047244	34.396656865236
0	727	3.637732722325	30.077493105454
0	728	3.641572609874	29.093662116685
0	729	3.645847315522	27.998424865412
0	730	3.647389030358	27.603416727245
0	731	3.648268631707	27.378050996122
0	732	3.648702660922	27.26684685634
0	733	3.652461387906	26.303810299151
0	734	3.654939140705	25.668976608045
0	735	3.657733790941	24.952949518746
0	736	3.663607854825	23.447935112636
0	737	3.667309106548	22.499624492637
0	738	3.672189097535	21.249304972428
0	739	3.67964099989	19.340027065569
0	740	3.679678875654	19.330322783902
0	741	3.680834894183	19.034135242494
0	742	3.683678761189	18.305498152804
0	743	3.685169525283	17.923544282045
0	744	3.687342478341	17.366804396223
0	745	3.701068961981	13.849894122282
0	746	3.71015636109	11.52157988478
0	747	3.716883848591	9.7979068356146
0	748	3.720875047244	8.7753079008682
0	749	3.737732722325	4.4561441410859
0	750	3.745847315522	2.3770759010436
0	751	3.747319040924	2
0	752	3.747389030358	2
0	753	3.748702660922	2
0	754	3.752461387906	2
0	755	3.754939140705	2
0	756	3.757733790941	2
0	757	3.763607854825	2
0	758	3.767309106548	2
0	759	3.772189097535	2
0	760	3.77964099989	2
0	761	3.780834894183	2
0	762	3.783678761189	2
0	763	3.785169525283	2
0	764	3.787342478341	2
0	765	3.801068961981	2
0	766	3.81015636109	2
0	767	3.816883848591	2
0	768	3.820875047244	2
0	769	3.825018074801	2
0	770	3.837732722325	2
0	771	3.845847315522	2
0	772	3.847319040924	2
0	773	3.847389030358	2
0	774	3.848702660922	2
0	775	3.852461387906	2
0	776	3.854939140705	2
0	777	3.857733790941	2
0	778	3.863607854825	2
0	779	3.867309106548	2
0	780	3.872369343409	2
0	781	3.87964099989	2
0	782	3.880834894183	2
0	783	3.883678761189	2
0	784	3.885169525283	2
0	785	3.887342478341	2
0	786	3.901068961981	2
0	787	3.91015636109	2
0	788	3.916883848591	2
0	789	3.925018074801	2
0	790	3.937732722325	2
0	791	3.945847315522	2
0	792	3.947319040924	2
0	793	3.947389030358	2
0	794	3.948702660922	2
0	795	3.952461387906	2
0	796	3.954939140705	2
0	797	3.957733790941	2
0	798	3.963607854825	2
0	799	3.967309106548	2
0	800	3.972369343409	2
0	801	3.97964099989	2
0	802	3.980834894183	2
0	803	3.983678761189	2
0	804	3.985169525283	2
0	805	3.987342478341	2
0	806	4.001068961981	2
0	807	4.01015636109	2
0	808	4.016883848591	2
0	809	4.025018074801	2
0	810	4.037732722325	2
0	811	4.039371709818	2
0	812	4.045847315522	2
0	813	4.047319040924	2
0	814	4.047389030358	2
0	815	4.048702660922	2
0	816	4.052461387906	2
0	817	4.054939140705	2
0	818	4.057733790941	2
0	819	4.063607854825	2
0	820	4.067309106548	2
0	821	4.072369343409	2
0	822	4.07964099989	2
0	823	4.080834894183	2
0	824	4.083678761189	2
0	825	4.085169525283	2
0	826	4.101068961981	2
0	827	4.11015636109	2
0	828	4.116883848591	2
0	829	4.125018074801	2
0	830	4.135428682041	2
0	831	4.137732722325	2
0	832	4.139371709818	2
0	833	4.145847315522	2
0	834	4.147319040924	2
0	835	4.147389030358	2
0	836	4.148702660922	2
0	837	4.152461387906	2
0	838	4.154939140705	2
0	839	4.157733790941	2
0	840	4.163607854825	2
0	841	4.167309106548	2
0	842	4.172369343409	2
0	843	4.17964099989	2
0	844	4.180834894183	2
0	845	4.185169525283	2
0	846	4.201068961981	2
0	847	4.21015636109	2
0	848	4.216883848591	2
0	849	4.221906957557	2
0	850	4.225018074801	2
0	851	4.235428682041	2
0	852	4.237732722325	2
0	853	4.239371709818	2
0	854	4.245847315522	2
0	855	4.247319040924	2
0	856	4.247389030358	2
0	857	4.248702660922	2
0	858	4.252461387906	2
0	859	4.257733790941	2
0	860	4.263607854825	2
0	861	4.267309106548	2
0	862	4.272369343409	2
0	863	4.27964099989	2
0	864	4.280834894183	2
0	865	4.285169525283	2
0	866	4.301068961981	2
0	867	4.31015636109	2
0	868	4.315965474203	2
0	869	4.321906957557	2
0	870	4.325018074801	2
0	871	4.335428682041	2
0	872	4.337732722325	2
0	873	4.339371709818	2
0	874	4.345847315522	2
0	875	4.347319040924	2
0	876	4.347389030358	2
0	877	4.348702660922	2
0	878	4.352461387906	2
0	879	4.357733790941	2
0	880	4.363607854825	2
0	881	4.367309106548	2
0	882	4.372369343409	2
0	883	4.37964099989	2
0	884	4.380834894183	2
0	885	4.385169525283	2
0	886	4.401068961981	2
0	887	4.41015636109	2
0	888	4.415965474203	2
0	889	4.421906957557	2
0	890	4.425018074801	2
0	891	4.435428682041	2
0	892	4.437732722325	2
0	893	4.439371709818	2
0	894	4.445847315522	2
0	895	4.447319040924	2
0	896	4.447389030358	2
0	897	4.448702660922	2
0	898	4.450206234972	2
0	899	4.452461387906	2
0	900	4.457733790941	2
0	901	4.463607854825	2
0	902	4.467309106548	2
0	903	4.472369343409	2
0	904	4.47964099989	2
0	905	4.480834894183	2
0	906	4.485169525283	2
0	907	4.485573824884	2
0	908	4.501068961981	2
0	909	4.512397352979	2
0	910	4.515965474203	2
0	911	4.521906957557	2
0	912	4.525018074801	2
0	913	4.535428682041	2
0	914	4.539371709818	2
0	915	4.545847315522	2
0	916	4.547319040924	2
0	917	4.547389030358	2
0	918	4.550206234972	2
0	919	4.552461387906	2
0	920	4.557733790941	2
0	921	4.563607854825	2
0	922	4.567309106548	2
0	923	4.572369343409	2
0	924	4.57964099989	2
0	925	4.580834894183	2
0	926	4.585169525283	2
0	927	4.585573824884	2
0	928	4.601068961981	2
0	929	4.612397352979	2
0	930	4.615965474203	2
0	931	4.621906957557	2
0	932	4.625018074801	2
0	933	4.635428682041	2
0	934	4.639371709818	2
0	935	4.643434268745	2
0	936	4.645847315522	2
0	937	4.647319040924	2
0	938	4.647389030358	2
0	939	4.650206234972	2
0	940	4.652461387906	2
0	941	4.657733790941	2
0	942	4.663607854825	2
0	943	4.667309106548	2
0	944	4.672369343409	2
0	945	4.680834894183	2
0	946	4.685169525283	2
0	947	4.685573824884	2
0	948	4.701068961981	2
0	949	4.712397352979	2
0	950	4.715965474203	2
0	951	4.717706068866	2
0	952	4.721906957557	2
0	953	4.725018074801	2
0	954	4.735428682041	2
0	955	4.739371709818	2
0	956	4.743434268745	2
0	957	4.745847315522	2
0	958	4.747319040924	2
0	959	4.750206234972	2
0	960	4.752461387906	2
0	961	4.757733790941	2
0	962	4.763607854825	2
0	963	4.767309106548	2
0	964	4.770476199949	2
0	965	4.772369343409	2
0	966	4.780834894183	2
0	967	4.785169525283	2
0	968	4.785573824884	2
0	969	4.801068961981	2
0	970	4.812397352979	2
0	971	4.815965474203	2
0	972	4.817706068866	2
0	973	4.821906957557	2
0	974	4.825018074801	2
0	975	4.835428682041	2
0	976	4.839371709818	2
0	977	4.843434268745	2
0	978	4.847319040924	2
0	979	4.850206234972	2
0	980	4.852461387906	2
0	981	4.857733790941	2
0	982	4.863607854825	2
0	983	4.867309106548	2
0	984	4.870476199949	2
0	985	4.872369343409	2
0	986	4.880834894183	2
0	987	4.885169525283	2
0	988	4.885573824884	2
0	989	4.901068961981	2
0	990	4.912397352979	2
0	991	4.915965474203	2
0	992	4.917706068866	2
0	993	4.921906957557	2
0	994	4.925018074801	2
0	995	4.935428682041	2
0	996	4.939371709818	2
0	997	4.943434268745	2
0	998	4.947319040924	2
0	999	4.950206234972	2
0	1000	4.952461387906	2
0	1001	4.957733790941	2
0	1002	4.963607854825	2
0	1003	4.967309106548	2
0	1004	4.970476199949	2
0	1005	4.972369343409	2
0	1006	4.980834894183	2
0	1007	4.985169525283	2
0	1008	4.985573824884	2
0	1009	5.001068961981	2
0	1010	5.012397352979	2
0	1011	5.015965474203	2
0	1012	5.017706068866	2
0	1013	5.021906957557	2
0	1014	5.025018074801	2
0	1015	5.035428682041	2
0	1016	5.039371709818	2
0	1017	5.043434268745	2
0	1018	5.047319040924	2
0	1019	5.050206234972	2
0	1020	5.052461387906	2
0	1021	5.057733790941	2
0	1022	5.063607854825	2
0	1023	5.067309106548	2
0	1024	5.070476199949	2
0	1025	5.072369343409	2
0	1026	5.080834894183	2
0	1027	5.085169525283	2
0	1028	5.085573824884	2
0	1029	5.101068961981	2
0	1030	5.112397352979	2
0	1031	5.115965474203	2
0	1032	5.117706068866	2
0	1033	5.121906957557	2
0	1034	5.125018074801	2
0	1035	5.135428682041	2
0	1036	5.139371709818	2
0	1037	5.143434268745	2
0	1038	5.147319040924	2
0	1039	5.150206234972	2
0	1040	5.152461387906	2
0	1041	5.157733790941	2
0	1042	5.163607854825	2
0	1043	5.167309106548	2
0	1044	5.170476199949	2
0	1045	5.172369343409	2
0	1046	5.175144180893	2
0	1047	5.185169525283	2
0	1048	5.185573824884	2
0	1049	5.201068961981	2
0	1050	5.212397352979	2
0	1051	5.215965474203	2
0	1052	5.217706068866	2
0	1053	5.221906957557	2
0	1054	5.225018074801	2
0	1055	5.235428682041	2
0	1056	5.239371709818	2
0	1057	5.243434268745	2
0	1058	5.247319040924	2
0	1059	5.250206234972	2
0	1060	5.252461387906	2
0	1061	5.257733790941	2
0	1062	5.263607854825	2
0	1063	5.267309106548	2
0	1064	5.270476199949	2
0	1065	5.272369343409	2
0	1066	5.275144180893	2
0	1067	5.285169525283	2
0	1068	5.285573824884	2
0	1069	5.301068961981	2
0	1070	5.312397352979	2
0	1071	5.315965474203	2
0	1072	5.317706068866	2
0	1073	5.321906957557	2
0	1074	5.325018074801	2
0	1075	5.335428682041	2
0	1076	5.339371709818	2
0	1077	5.343434268745	2
0	1078	5.347319040924	2
0	1079	5.34943799823	2
0	1080	5.350206234972	2
0	1081	5.352461387906	2
0	1082	5.357733790941	2
0	1083	5.367309106548	2
0	1084	5.370476199949	2
0	1085	5.372369343409	2
0	1086	5.375144180893	2
0	1087	5.385169525283	2
0	1088	5.385573824884	2
0	1089	5.392466132818	2
0	1090	5.401068961981	2
0	1091	5.412397352979	2
0	1092	5.415965474203	2
0	1093	5.417706068866	2
0	1094	5.425018074801	2
0	1095	5.435428682041	2
0	1096	5.439371709818	2
0	1097	5.443434268745	2
0	1098	5.447319040924	2
0	1099	5.44943799823	2
0	1100	5.450206234972	2
0	1101	5.452461387906	2
0	1102	5.456342675274	2
0	1103	5.457733790941	2
0	1104	5.467309106548	2
0	1105	5.470476199949	2
0	1106	5.475144180893	2
0	1107	5.485169525283	2
0	1108	5.485573824884	2
0	1109	5.492466132818	2
0	1110	5.501068961981	2
0	1111	5.512397352979	2
0	1112	5.515965474203	2
0	1113	5.517706068866	2
0	1114	5.525018074801	2
0	1115	5.535428682041	2
0	1116	5.539371709818	2
0	1117	5.543434268745	2
0	1118	5.547319040924	2
0	1119	5.54943799823	2
0	1120	5.550206234972	2
0	1121	5.552461387906	2
0	1122	5.556342675274	2
0	1123	5.557733790941	2
0	1124	5.565021924094	2
0	1125	5.567309106548	2
0	1126	5.570476199949	2
0	1127	5.575144180893	2
0	1128	5.585169525283	2
0	1129	5.585573824884	2
0	1130	5.592466132818	2
0	1131	5.601068961981	2
0	1132	5.612397352979	2
0	1133	5.615965474203	2
0	1134	5.617706068866	2
0	1135	5.625018074801	2
0	1136	5.635428682041	2
0	1137	5.639371709818	2
0	1138	5.643434268745	2
0	1139	5.647319040924	2
0	1140	5.64943799823	2
0	1141	5.650206234972	2
0	1142	5.652461387906	2
0	1143	5.653654524105	2
0	1144	5.656342675274	2
0	1145	5.665021924094	2
0	1146	5.670476199949	2
0	1147	5.675144180893	2
0	1148	5.685169525283	2
0	1149	5.685573824884	2
0	1150	5.692466132818	2
0	1151	5.701068961981	2
0	1152	5.705037070456	2
0	1153	5.711552159608	2
0	1154	5.712397352979	2
0	1155	5.715965474203	2
0	1156	5.725018074801	2
0	1157	5.735428682041	2
0	1158	5.739371709818	2
0	1159	5.743434268745	2
0	1160	5.747319040924	2
0	1161	5.74943799823	2
0	1162	5.750206234972	2
0	1163	5.752461387906	2
0	1164	5.753654524105	2
0	1165	5.756342675274	2
0	1166	5.765021924094	2
0	1167	5.770476199949	2
0	1168	5.775144180893	2
0	1169	5.785573824884	2
0	1170	5.792466132818	2
0	1171	5.801068961981	2
0	1172	5.805037070456	2
0	1173	5.811552159608	2
0	1174	5.812397352979	2
0	1175	5.815965474203	2
0	1176	5.825018074801	2
0	1177	5.835428682041	2
0	1178	5.839371709818	2
0	1179	5.843434268745	2
0	1180	5.847319040924	2
0	1181	5.84943799823	2
0	1182	5.850206234972	2
0	1183	5.852461387906	2
0	1184	5.853654524105	2
0	1185	5.856342675274	2
0	1186	5.865021924094	2
0	1187	5.870476199949	2
0	1188	5.875144180893	2
0	1189	5.885573824884	2
0	1190	5.892466132818	2
0	1191	5.901068961981	2
0	1192	5.905037070456	2
0	1193	5.911552159608	2
0	1194	5.912397352979	2
0	1195	5.915965474203	2
0	1196	5.925018074801	2
0	1197	5.927919525885	2
0	1198	5.935428682041	2
0	1199	5.939371709818	2
0	1200	5.943434268745	2
0	1201	5.947319040924	2
0	1202	5.94943799823	2
0	1203	5.950206234972	2
0	1204	5.953654524105	2
0	1205	5.956342675274	2
0	1206	5.965021924094	2
0	1207	5.970476199949	2
0	1208	5.975144180893	2
0	1209	5.985573824884	2
0	1210	5.992466132818	2
0	1211	6.001068961981	2
0	1212	6.005037070456	2
0	1213	6.011552159608	2
0	1214	6.012397352979	2
0	1215	6.013649149874	2
0	1216	6.015965474203	2
0	1217	6.025018074801	2
0	1218	6.027919525885	2
0	1219	6.035428682041	2
0	1220	6.039371709818	2
0	1221	6.043434268745	2
0	1222	6.047319040924	2
0	1223	6.04943799823	2
0	1224	6.050206234972	2
0	1225	6.053654524105	2
0	1226	6.056342675274	2
0	1227	6.065021924094	2
0	1228	6.070476199949	2
0	1229	6.075144180893	2
0	1230	6.085573824884	2
0	1231	6.092466132818	2
0	1232	6.105037070456	2
0	1233	6.111552159608	2
0	1234	6.112397352979	2
0	1235	6.113649149874	2
0	1236	6.115965474203	2
0	1237	6.125018074801	2
0	1238	6.125609692785	2
0	1239	6.127919525885	2
0	1240	6.135428682041	2
0	1241	6.139371709818	2
0	1242	6.143434268745	2
0	1243	6.14943799823	2
0	1244	6.150206234972	2
0	1245	6.153654524105	2
0	1246	6.156342675274	2
0	1247	6.165021924094	2
0	1248	6.170476199949	2
0	1249	6.174261992869	2
0	1250	6.175144180893	2
0	1251	6.185573824884	2
0	1252	6.192466132818	2
0	1253	6.205037070456	2
0	1254	6.211552159608	2
0	1255	6.212397352979	2
0	1256	6.213649149874	2
0	1257	6.215965474203	2
0	1258	6.225609692785	2
0	1259	6.227919525885	2
0	1260	6.235428682041	2
0	1261	6.239371709818	2
0	1262	6.243434268745	2
0	1263	6.24943799823	2
0	1264	6.250206234972	2
0	1265	6.253654524105	2
0	1266	6.256342675274	2
0	1267	6.265021924094	2
0	1268	6.270476199949	2
0	1269	6.274261992869	2
0	1270	6.275144180893	2
0	1271	6.285573824884	2
0	1272	6.292466132818	2
0	1273	6.305037070456	2
0	1274	6.311552159608	2
0	1275	6.312397352979	2
0	1276	6.313649149874	2
0	1277	6.315965474203	2
0	1278	6.321610671208	2
0	1279	6.325609692785	2
0	1280	6.327919525885	2
0	1281	6.335428682041	2
0	1282	6.343434268745	2
0	1283	6.34943799823	2
0	1284	6.350206234972	2
0	1285	6.353654524105	2
0	1286	6.356342675274	2
0	1287	6.365021924094	2
0	1288	6.370476199949	2
0	1289	6.374261992869	2
0	1290	6.375144180893	2
0	1291	6.385573824884	2
0	1292	6.392466132818	2
0	1293	6.405037070456	2
0	1294	6.411552159608	2
0	1295	6.412397352979	2
0	1296	6.413649149874	2
0	1297	6.415965474203	2
0	1298	6.421298950061	2
0	1299	6.421610671208	2
0	1300	6.425609692785	2
0	1301	6.427919525885	2
0	1302	6.443434268745	2
0	1303	6.44943799823	2
0	1304	6.450206234972	2
0	1305	6.453654524105	2
0	1306	6.456342675274	2
0	1307	6.465021924094	2
0	1308	6.470476199949	2
0	1309	6.474261992869	2
0	1310	6.475144180893	2
0	1311	6.485573824884	2
0	1312	6.492466132818	2
0	1313	6.505037070456	2
0	1314	6.511552159608	2
0	1315	6.512397352979	2
0	1316	6.513649149874	2
0	1317	6.515965474203	2
0	1318	6.517951438833	2
0	1319	6.521298950061	2
0	1320	6.521610671208	2
0	1321	6.525609692785	2
0	1322	6.527919525885	2
0	1323	6.543434268745	2
0	1324	6.54943799823	2
0	1325	6.553654524105	2
0	1326	6.556342675274	2
0	1327	6.565021924094	2
0	1328	6.570476199949	2
0	1329	6.574261992869	2
0	1330	6.575144180893	2
0	1331	6.585573824884	2
0	1332	6.592466132818	2
0	1333	6.605037070456	2
0	1334	6.611552159608	2
0	1335	6.612397352979	2
0	1336	6.613649149874	2
0	1337	6.615965474203	2
0	1338	6.617951438833	2
0	1339	6.621298950061	2
0	1340	6.621610671208	2
0	1341	6.625609692785	2
0	1342	6.627919525885	2
0	1343	6.633910259535	2
0	1344	6.643434268745	2
0	1345	6.64943799823	2
0	1346	6.653654524105	2
0	1347	6.656342675274	2
0	1348	6.665021924094	2
0	1349	6.670476199949	2
0	1350	6.674261992869	2
0	1351	6.675144180893	2
0	1352	6.685573824884	2
0	1353	6.692466132818	2
0	1354	6.705037070456	2
0	1355	6.711552159608	2
0	1356	6.712397352979	2
0	1357	6.713649149874	2
0	1358	6.717951438833	2
0	1359	6.721298950061	2
0	1360	6.721610671208	2
0	1361	6.725609692785	2
0	1362	6.727919525885	2
0	1363	6.733910259535	2
0	1364	6.743434268745	2
0	1365	6.74943799823	2
0	1366	6.753654524105	2
0	1367	6.756342675274	2
0	1368	6.765021924094	2
0	1369	6.770476199949	2
0	1370	6.774261992869	2
0	1371	6.775144180893	2
0	1372	6.785573824884	2
0	1373	6.792466132818	2
0	1374	6.805037070456	2
0	1375	6.811552159608	2
0	1376	6.812397352979	2
0	1377	6.813649149874	2
0	1378	6.817951438833	2
0	1379	6.821298950061	2
0	1380	6.821610671208	2
0	1381	6.825609692785	2
0	1382	6.827919525885	2
0	1383	6.833910259535	2
0	1384	6.843434268745	2
0	1385	6.84943799823	2
0	1386	6.852070509106	2
0	1387	6.853654524105	2
0	1388	6.856342675274	2
0	1389	6.865021924094	2
0	1390	6.870476199949	2
0	1391	6.874261992869	2
0	1392	6.875144180893	2
0	1393	6.892466132818	2
0	1394	6.905037070456	2
0	1395	6.911552159608	2
0	1396	6.912397352979	2
0	1397	6.913649149874	2
0	1398	6.917951438833	2
0	1399	6.921298950061	2
0	1400	6.921610671208	2
0	1401	6.925609692785	2
0	1402	6.927919525885	2
0	1403	6.933910259535	2
0	1404	6.943434268745	2
0	1405	6.94943799823	2
0	1406	6.952070509106	2
0	1407	6.953654524105	2
0	1408	6.956342675274	2
0	1409	6.965021924094	2
0	1410	6.970476199949	2
0	1411	6.974261992869	2
0	1412	6.975144180893	2
0	1413	6.992466132818	2
0	1414	7.005037070456	2
0	1415	7.011552159608	2
0	1416	7.012397352979	2
0	1417	7.013649149874	2
0	1418	7.017951438833	2
0	1419	7.021298950061	2
0	1420	7.021610671208	2
0	1421	7.025609692785	2
0	1422	7.027919525885	2
0	1423	7.033910259535	2
0	1424	7.041268009049	2
0	1425	7.043285083462	2
0	1426	7.043434268745	2
0	1427	7.04943799823	2
0	1428	7.052070509106	2
0	1429	7.053654524105	2
0	1430	7.056342675274	2
0	1431	7.065021924094	2
0	1432	7.070476199949	2
0	1433	7.074261992869	2
0	1434	7.092466132818	2
0	1435	7.105037070456	2
0	1436	7.111552159608	2
0	1437	7.112397352979	2
0	1438	7.113649149874	2
0	1439	7.117951438833	2
0	1440	7.121298950061	2
0	1441	7.121610671208	2
0	1442	7.125609692785	2
0	1443	7.128359088166	2
0	1444	7.133910259535	2
0	1445	7.141268009049	2
0	1446	7.143285083462	2
0	1447	7.143434268745	2
1	21	0.2	13.353814855655
1	41	0.3	19.030722283483
1	61	0.4	24.707629711311
1	81	0.5	30.384537139139
1	101	0.6	36.061444566966
1	121	0.7	41.738351994794
1	141	0.8	47.415259422622
1	161	0.9	53.09216685045
1	181	1	58.769074278277
1	201	1.1	64.445981706105
1	221	1.127851431333	66.027081680205
1	222	1.164911113167	68.130925510968
1	223	1.2	70.122889133933
1	241	1.227851431333	71.703989108032
1	242	1.264911113167	73.807832938796
1	243	1.3	75.799796561761
1	261	1.327851431333	77.38089653586
1	262	1.364911113167	79.484740366624
1	263	1.4	81.476703989588
1	281	1.427851431333	83.057803963688
1	282	1.464911113167	85.161647794452
1	283	1.479678875654	86
1	284	1.490707044307	85.591484495186
1	285	1.5	85.247246335108
1	301	1.527851431333	84.215548154857
1	302	1.564911113167	82.842749541685
1	303	1.579678875654	82.295708583465
1	304	1.590707044307	81.887193078651
1	305	1.6	81.542954918573
1	321	1.627851431333	80.511256738322
1	322	1.664911113167	79.13845812515
1	323	1.679678875654	78.59141716693
1	324	1.690707044307	78.182901662116
1	325	1.7	77.838663502037
1	341	1.727851431333	76.806965321787
1	342	1.764911113167	75.434166708615
1	343	1.779678875654	74.887125750395
1	344	1.790707044307	74.47861024558
1	345	1.796616490851	74.259707124486
1	346	1.8	74.134372085502
1	361	1.827851431333	73.102673905252
1	362	1.864911113167	71.72987529208
1	363	1.879678875654	71.182834333859
1	364	1.890707044307	70.774318829045
1	365	1.896616490851	70.555415707951
1	366	1.9	70.430080668967
1	381	1.927851431333	69.398382488717
1	382	1.948268631707	68.642069887766
1	383	1.964911113167	68.025583875545
1	384	1.979678875654	67.478542917324
1	385	1.990707044307	67.07002741251
1	386	1.996616490851	66.851124291416
1	387	2	66.725789252432
1	401	2.027851431333	65.694091072181
1	402	2.048268631707	64.937778471231
1	403	2.048702660922	64.921700764274
1	404	2.064911113167	64.321292459009
1	405	2.079678875654	63.774251500789
1	406	2.090707044307	63.365735995975
1	407	2.096616490851	63.146832874881
1	408	2.1	63.021497835897
1	421	2.115570372836	62.44472585141
1	422	2.127851431333	61.989799655646
1	423	2.148268631707	61.233487054695
1	424	2.148702660922	61.217409347739
1	425	2.164911113167	60.617001042474
1	426	2.172189097535	60.347403292234
1	427	2.179678875654	60.069960084254
1	428	2.188253834944	59.752318603303
1	429	2.190707044307	59.66144457944
1	430	2.196616490851	59.442541458346
1	431	2.2	59.317206419362
1	441	2.215570372836	58.740434434875
1	442	2.220875047244	58.543933836105
1	443	2.227851431333	58.285508239111
1	444	2.237732722325	57.919476425052
1	445	2.248268631707	57.52919563816
1	446	2.248702660922	57.513117931204
1	447	2.264911113167	56.912709625939
1	448	2.272189097535	56.643111875698
1	449	2.279678875654	56.365668667719
1	450	2.288253834944	56.048027186768
1	451	2.290707044307	55.957153162905
1	452	2.296616490851	55.738250041811
1	453	2.3	55.612915002827
1	461	2.315570372836	55.03614301834
1	462	2.320875047244	54.839642419569
1	463	2.327851431333	54.581216822576
1	464	2.337732722325	54.215185008517
1	465	2.341572609874	54.072944383634
1	466	2.348268631707	53.824904221625
1	467	2.348702660922	53.808826514669
1	468	2.364911113167	53.208418209404
1	469	2.372189097535	52.938820459163
1	470	2.379678875654	52.661377251184
1	471	2.387342478341	52.377495074652
1	472	2.388253834944	52.343735770233
1	473	2.390707044307	52.25286174637
1	474	2.396616490851	52.033958625275
1	475	2.4	51.908623586291
1	482	2.41015636109	51.532402374202
1	483	2.415570372836	51.331851601805
1	484	2.420875047244	51.135351003034
1	485	2.437732722325	50.510893591981
1	486	2.441572609874	50.368652967099
1	487	2.445847315522	50.210305412698
1	488	2.448268631707	50.12061280509
1	489	2.448702660922	50.104535098134
1	490	2.464911113167	49.504126792869
1	491	2.472189097535	49.234529042628
1	492	2.479678875654	48.957085834649
1	493	2.487342478341	48.673203658117
1	494	2.488253834944	48.639444353698
1	495	2.490707044307	48.548570329834
1	496	2.496616490851	48.32966720874
1	497	2.5	48.204332169756
1	502	2.51015636109	47.828110957667
1	503	2.515570372836	47.62756018527
1	504	2.520875047244	47.431059586499
1	505	2.537732722325	46.806602175446
1	506	2.541572609874	46.664361550564
1	507	2.545847315522	46.506013996163
1	508	2.548268631707	46.416321388555
1	509	2.548702660922	46.400243681598
1	510	2.554939140705	46.169226296303
1	511	2.564911113167	45.799835376334
1	512	2.572189097535	45.530237626093
1	513	2.579678875654	45.252794418113
1	514	2.583678761189	45.104627001569
1	515	2.587342478341	44.968912241581
1	516	2.588253834944	44.935152937163
1	517	2.590707044307	44.844278913299
1	518	2.596616490851	44.625375792205
1	519	2.6	44.500040753221
1	522	2.61015636109	44.123819541132
1	523	2.615570372836	43.923268768735
1	524	2.620875047244	43.726768169964
1	525	2.637732722325	43.102310758911
1	526	2.641572609874	42.960070134029
1	527	2.645847315522	42.801722579628
1	528	2.648268631707	42.71202997202
1	529	2.648702660922	42.695952265063
1	530	2.654939140705	42.464934879768
1	531	2.664911113167	42.095543959798
1	532	2.672189097535	41.825946209558
1	533	2.679678875654	41.548503001578
1	534	2.683678761189	41.400335585034
1	535	2.687342478341	41.264620825046
1	536	2.688253834944	41.230861520627
1	537	2.690707044307	41.139987496764
1	538	2.696616490851	40.92108437567
1	539	2.7	40.795749336686
1	542	2.71015636109	40.419528124597
1	543	2.715570372836	40.218977352199
1	544	2.716883848591	40.170322382549
1	545	2.720875047244	40.022476753429
1	546	2.737732722325	39.398019342376
1	547	2.741572609874	39.255778717494
1	548	2.745847315522	39.097431163093
1	549	2.748268631707	39.007738555485
1	550	2.748702660922	38.991660848528
1	551	2.754939140705	38.760643463232
1	552	2.764911113167	38.391252543263
1	553	2.772189097535	38.121654793023
1	554	2.779678875654	37.844211585043
1	555	2.783678761189	37.696044168499
1	556	2.787342478341	37.560329408511
1	557	2.788253834944	37.526570104092
1	558	2.790707044307	37.435696080229
1	559	2.796616490851	37.216792959135
1	560	2.8	37.091457920151
1	562	2.81015636109	36.715236708062
1	563	2.815570372836	36.514685935664
1	564	2.816883848591	36.466030966014
1	565	2.820875047244	36.318185336894
1	566	2.837732722325	35.693727925841
1	567	2.841572609874	35.551487300959
1	568	2.845847315522	35.393139746558
1	569	2.847389030358	35.33603013622
1	570	2.848268631707	35.303447138949
1	571	2.848702660922	35.287369431993
1	572	2.854939140705	35.056352046697
1	573	2.857733790941	34.952830057883
1	574	2.872189097535	34.417363376488
1	575	2.879678875654	34.139920168508
1	576	2.883678761189	33.991752751964
1	577	2.887342478341	33.856037991976
1	578	2.888253834944	33.822278687557
1	579	2.890707044307	33.731404663694
1	580	2.896616490851	33.5125015426
1	581	2.9	33.387166503616
1	582	2.91015636109	33.010945291526
1	583	2.915570372836	32.810394519129
1	584	2.916883848591	32.761739549478
1	585	2.920875047244	32.613893920358
1	586	2.937732722325	31.989436509306
1	587	2.941572609874	31.847195884423
1	588	2.945847315522	31.688848330022
1	589	2.947389030358	31.631738719685
1	590	2.948268631707	31.599155722414
1	591	2.948702660922	31.583078015458
1	592	2.954939140705	31.352060630162
1	593	2.957733790941	31.248538641348
1	594	2.972189097535	30.713071959952
1	595	2.979678875654	30.435628751973
1	596	2.983678761189	30.287461335429
1	597	2.987342478341	30.151746575441
1	598	2.988253834944	30.117987271022
1	599	2.990707044307	30.027113247159
1	600	2.996616490851	29.808210126065
1	601	3	29.682875087081
1	602	3.001068961981	29.643277620172
1	603	3.01015636109	29.306653874991
1	604	3.015570372836	29.106103102594
1	605	3.016883848591	29.057448132943
1	606	3.020875047244	28.909602503823
1	607	3.037732722325	28.28514509277
1	608	3.041572609874	28.142904467888
1	609	3.045847315522	27.984556913487
1	610	3.047389030358	27.92744730315
1	611	3.048268631707	27.894864305879
1	612	3.048702660922	27.878786598923
1	613	3.054939140705	27.647769213627
1	614	3.057733790941	27.544247224813
1	615	3.072189097535	27.008780543417
1	616	3.079678875654	26.731337335438
1	617	3.083678761189	26.583169918893
1	618	3.087342478341	26.447455158906
1	619	3.088253834944	26.413695854487
1	620	3.090707044307	26.322821830624
1	621	3.096616490851	26.103918709529
1	622	3.101068961981	25.938986203637
1	623	3.11015636109	25.602362458456
1	624	3.115570372836	25.401811686059
1	625	3.116883848591	25.353156716408
1	626	3.120875047244	25.205311087288
1	627	3.137732722325	24.580853676235
1	628	3.141572609874	24.438613051353
1	629	3.145847315522	24.280265496952
1	630	3.147389030358	24.223155886615
1	631	3.148268631707	24.190572889344
1	632	3.148702660922	24.174495182387
1	633	3.154939140705	23.943477797092
1	634	3.157733790941	23.839955808278
1	635	3.163607854825	23.622363364021
1	636	3.172189097535	23.304489126882
1	637	3.179678875654	23.027045918903
1	638	3.183678761189	22.878878502358
1	639	3.187342478341	22.743163742371
1	640	3.188253834944	22.709404437952
1	641	3.196616490851	22.399627292994
1	642	3.201068961981	22.234694787102
1	643	3.21015636109	21.898071041921
1	644	3.215570372836	21.697520269524
1	645	3.216883848591	21.648865299873
1	646	3.220875047244	21.501019670753
1	647	3.237732722325	20.8765622597
1	648	3.241572609874	20.734321634818
1	649	3.245847315522	20.575974080417
1	650	3.247389030358	20.51886447008
1	651	3.248268631707	20.486281472809
1	652	3.248702660922	20.470203765852
1	653	3.254939140705	20.239186380557
1	654	3.257733790941	20.135664391742
1	655	3.263607854825	19.918071947486
1	656	3.272189097535	19.600197710347
1	657	3.279678875654	19.322754502367
1	658	3.283678761189	19.174587085823
1	659	3.287342478341	19.038872325835
1	660	3.288253834944	19.005113021417
1	661	3.296616490851	18.695335876459
1	662	3.301068961981	18.530403370567
1	663	3.31015636109	18.193779625386
1	664	3.315570372836	17.993228852989
1	665	3.316883848591	17.944573883338
1	666	3.320875047244	17.796728254218
1	667	3.337732722325	17.172270843165
1	668	3.341572609874	17.030030218283
1	669	3.345847315522	16.871682663882
1	670	3.347389030358	16.814573053544
1	671	3.348268631707	16.781990056274
1	672	3.348702660922	16.765912349317
1	673	3.354939140705	16.534894964022
1	674	3.357733790941	16.431372975207
1	675	3.363607854825	16.21378053095
1	676	3.372189097535	15.895906293812
1	677	3.379678875654	15.618463085832
1	678	3.383678761189	15.470295669288
1	679	3.387342478341	15.3345809093
1	680	3.388253834944	15.300821604881
1	681	3.396616490851	14.991044459924
1	682	3.401068961981	14.826111954032
1	683	3.41015636109	14.489488208851
1	684	3.415570372836	14.288937436453
1	685	3.416883848591	14.240282466803
1	686	3.420875047244	14.092436837683
1	687	3.437732722325	13.46797942663
1	688	3.441572609874	13.325738801748
1	689	3.445847315522	13.167391247347
1	690	3.447389030358	13.110281637009
1	691	3.448268631707	13.077698639739
1	692	3.448702660922	13.061620932782
1	693	3.454939140705	12.830603547486
1	694	3.457733790941	12.727081558672
1	695	3.463607854825	12.509489114415
1	696	3.472189097535	12.191614877277
1	697	3.479678875654	11.914171669297
1	698	3.483678761189	11.766004252753
1	699	3.487342478341	11.630289492765
1	700	3.488253834944	11.596530188346
1	701	3.496616490851	11.286753043389
1	702	3.501068961981	11.121820537497
1	703	3.51015636109	10.785196792316
1	704	3.515570372836	10.584646019918
1	705	3.516883848591	10.535991050268
1	706	3.520875047244	10.388145421148
1	707	3.537732722325	9.7636880100948
1	708	3.541572609874	9.6214473852126
1	709	3.545847315522	9.4630998308115
1	710	3.547389030358	9.4059902204742
1	711	3.548268631707	9.3734072232034
1	712	3.548702660922	9.3573295162469
1	713	3.552461387906	9.2180953152076
1	714	3.554939140705	9.1263121309513
1	715	3.557733790941	9.022790142137
1	716	3.563607854825	8.8051976978802
1	717	3.572189097535	8.4873234607416
1	718	3.57964099989	8.2112832814367
1	719	3.579678875654	8.2098802527619
1	720	3.583678761189	8.0617128362177
1	721	3.587342478341	7.92599807623
1	722	3.601068961981	7.4175291209614
1	723	3.61015636109	7.0809053757804
1	724	3.615570372836	6.8803546033832
1	725	3.616883848591	6.8316996337324
1	726	3.620875047244	6.6838540046125
1	727	3.637732722325	6.0593965935596
1	728	3.641572609874	5.9171559686774
1	729	3.645847315522	5.7588084142764
1	730	3.647389030358	5.701698803939
1	731	3.648268631707	5.6691158066683
1	732	3.648702660922	5.6530380997118
1	733	3.652461387906	5.5138038986725
1	734	3.654939140705	5.4220207144162
1	735	3.657733790941	5.3184987256018
1	736	3.663607854825	5.100906281345
1	737	3.667309106548	4.9638011314656
1	738	3.672189097535	4.7830320442064
1	739	3.67964099989	4.5069918649016
1	740	3.679678875654	4.5055888362268
1	741	3.680834894183	4.4627665410835
1	742	3.683678761189	4.3574214196826
1	743	3.685169525283	4.3021991733077
1	744	3.687342478341	4.2217066596949
1	745	3.701068961981	3.7132377044263
1	746	3.71015636109	3.3766139592453
1	747	3.716883848591	3.1274082171973
1	748	3.720875047244	2.9795625880773
1	749	3.737732722325	2.3551051770245
1	750	3.745847315522	2.0545169977413
1	751	3.747319040924	2
1	752	3.747389030358	2
1	753	3.748702660922	2
1	754	3.752461387906	2
1	755	3.754939140705	2
1	756	3.757733790941	2
1	757	3.763607854825	2
1	758	3.767309106548	2
1	759	3.772189097535	2
1	760	3.77964099989	2
1	761	3.780834894183	2
1	762	3.783678761189	2
1	763	3.785169525283	2
1	764	3.787342478341	2
1	765	3.801068961981	2
1	766	3.81015636109	2
1	767	3.816883848591	2
1	768	3.820875047244	2
1	769	3.825018074801	2
1	770	3.837732722325	2
1	771	3.845847315522	2
1	772	3.847319040924	2
1	773	3.847389030358	2
1	774	3.848702660922	2
1	775	3.852461387906	2
1	776	3.854939140705	2
1	777	3.857733790941	2
1	778	3.863607854825	2
1	779	3.867309106548	2
1	780	3.872369343409	2
1	781	3.87964099989	2
1	782	3.880834894183	2
1	783	3.883678761189	2
1	784	3.885169525283	2
1	785	3.887342478341	2
1	786	3.901068961981	2
1	787	3.91015636109	2
1	788	3.916883848591	2
1	789	3.925018074801	2
1	790	3.937732722325	2
1	791	3.945847315522	2
1	792	3.947319040924	2
1	793	3.947389030358	2
1	794	3.948702660922	2
1	795	3.952461387906	2
1	796	3.954939140705	2
1	797	3.957733790941	2
1	798	3.963607854825	2
1	799	3.967309106548	2
1	800	3.972369343409	2
1	801	3.97964099989	2
1	802	3.980834894183	2
1	803	3.983678761189	2
1	804	3.985169525283	2
1	805	3.987342478341	2
1	806	4.001068961981	2
1	807	4.01015636109	2
1	808	4.016883848591	2
1	809	4.025018074801	2
1	810	4.037732722325	2
1	811	4.039371709818	2
1	812	4.045847315522	2
1	813	4.047319040924	2
1	814	4.047389030358	2
1	815	4.048702660922	2
1	816	4.052461387906	2
1	817	4.054939140705	2
1	818	4.057733790941	2
1	819	4.063607854825	2
1	820	4.067309106548	2
1	821	4.072369343409	2
1	822	4.07964099989	2
1	823	4.080834894183	2
1	824	4.083678761189	2
1	825	4.085169525283	2
1	826	4.101068961981	2
1	827	4.11015636109	2
1	828	4.116883848591	2
1	829	4.125018074801	2
1	830	4.135428682041	2
1	831	4.137732722325	2
1	832	4.139371709818	2
1	833	4.145847315522	2
1	834	4.147319040924	2
1	835	4.147389030358	2
1	836	4.148702660922	2
1	837	4.152461387906	2
1	838	4.154939140705	2
1	839	4.157733790941	2
1	840	4.163607854825	2
1	841	4.167309106548	2
1	842	4.172369343409	2
1	843	4.17964099989	2
1	844	4.180834894183	2
1	845	4.185169525283	2
1	846	4.201068961981	2
1	847	4.21015636109	2
1	848	4.216883848591	2
1	849	4.221906957557	2
1	850	4.225018074801	2
1	851	4.235428682041	2
1	852	4.237732722325	2
1	853	4.239371709818	2
1	854	4.245847315522	2
1	855	4.247319040924	2
1	856	4.247389030358	2
1	857	4.248702660922	2
1	858	4.252461387906	2
1	859	4.257733790941	2
1	860	4.263607854825	2
1	861	4.267309106548	2
1	862	4.272369343409	2
1	863	4.27964099989	2
1	864	4.280834894183	2
1	865	4.285169525283	2
1	866	4.301068961981	2
1	867	4.31015636109	2
1	868	4.315965474203	2
1	869	4.321906957557	2
1	870	4.325018074801	2
1	871	4.335428682041	2
1	872	4.337732722325	2
1	873	4.339371709818	2
1	874	4.345847315522	2
1	875	4.347319040924	2
1	876	4.347389030358	2
1	877	4.348702660922	2
1	878	4.352461387906	2
1	879	4.357733790941	2
1	880	4.363607854825	2
1	881	4.367309106548	2
1	882	4.372369343409	2
1	883	4.37964099989	2
1	884	4.380834894183	2
1	885	4.385169525283	2
1	886	4.401068961981	2
1	887	4.41015636109	2
1	888	4.415965474203	2
1	889	4.421906957557	2
1	890	4.425018074801	2
1	891	4.435428682041	2
1	892	4.437732722325	2
1	893	4.439371709818	2
1	894	4.445847315522	2
1	895	4.447319040924	2
1	896	4.447389030358	2
1	897	4.448702660922	2
1	898	4.450206234972	2
1	899	4.452461387906	2
1	900	4.457733790941	2
1	901	4.463607854825	2
1	902	4.467309106548	2
1	903	4.472369343409	2
1	904	4.47964099989	2
1	905	4.480834894183	2
1	906	4.485169525283	2
1	907	4.485573824884	2
1	908	4.501068961981	2
1	909	4.512397352979	2
1	910	4.515965474203	2
1	911	4.521906957557	2
1	912	4.525018074801	2
1	913	4.535428682041	2
1	914	4.539371709818	2
1	915	4.545847315522	2
1	916	4.547319040924	2
1	917	4.547389030358	2
1	918	4.550206234972	2
1	919	4.552461387906	2
1	920	4.557733790941	2
1	921	4.563607854825	2
1	922	4.567309106548	2
1	923	4.572369343409	2
1	924	4.57964099989	2
1	925	4.580834894183	2
1	926	4.585169525283	2
1	927	4.585573824884	2
1	928	4.601068961981	2
1	929	4.612397352979	2
1	930	4.615965474203	2
1	931	4.621906957557	2
1	932	4.625018074801	2
1	933	4.635428682041	2
1	934	4.639371709818	2
1	935	4.643434268745	2
1	936	4.645847315522	2
1	937	4.647319040924	2
1	938	4.647389030358	2
1	939	4.650206234972	2
1	940	4.652461387906	2
1	941	4.657733790941	2
1	942	4.663607854825	2
1	943	4.667309106548	2
1	944	4.672369343409	2
1	945	4.680834894183	2
1	946	4.685169525283	2
1	947	4.685573824884	2
1	948	4.701068961981	2
1	949	4.712397352979	2
1	950	4.715965474203	2
1	951	4.717706068866	2
1	952	4.721906957557	2
1	953	4.725018074801	2
1	954	4.735428682041	2
1	955	4.739371709818	2
1	956	4.743434268745	2
1	957	4.745847315522	2
1	958	4.747319040924	2
1	959	4.750206234972	2
1	960	4.752461387906	2
1	961	4.757733790941	2
1	962	4.763607854825	2
1	963	4.767309106548	2
1	964	4.770476199949	2
1	965	4.772369343409	2
1	966	4.780834894183	2
1	967	4.785169525283	2
1	968	4.785573824884	2
1	969	4.801068961981	2
1	970	4.812397352979	2
1	971	4.815965474203	2
1	972	4.817706068866	2
1	973	4.821906957557	2
1	974	4.825018074801	2
1	975	4.835428682041	2
1	976	4.839371709818	2
1	977	4.843434268745	2
1	978	4.847319040924	2
1	979	4.850206234972	2
1	980	4.852461387906	2
1	981	4.857733790941	2
1	982	4.863607854825	2
1	983	4.867309106548	2
1	984	4.870476199949	2
1	985	4.872369343409	2
1	986	4.880834894183	2
1	987	4.885169525283	2
1	988	4.885573824884	2
1	989	4.901068961981	2
1	990	4.912397352979	2
1	991	4.915965474203	2
1	992	4.917706068866	2
1	993	4.921906957557	2
1	994	4.925018074801	2
1	995	4.935428682041	2
1	996	4.939371709818	2
1	997	4.943434268745	2
1	998	4.947319040924	2
1	999	4.950206234972	2
1	1000	4.952461387906	2
1	1001	4.957733790941	2
1	1002	4.963607854825	2
1	1003	4.967309106548	2
1	1004	4.970476199949	2
1	1005	4.972369343409	2
1	1006	4.980834894183	2
1	1007	4.985169525283	2
1	1008	4.985573824884	2
1	1009	5.001068961981	2
1	1010	5.012397352979	2
1	1011	5.015965474203	2
1	1012	5.017706068866	2
1	1013	5.021906957557	2
1	1014	5.025018074801	2
1	1015	5.035428682041	2
1	1016	5.039371709818	2
1	1017	5.043434268745	2
1	1018	5.047319040924	2
1	1019	5.050206234972	2
1	1020	5.052461387906	2
1	1021	5.057733790941	2
1	1022	5.063607854825	2
1	1023	5.067309106548	2
1	1024	5.070476199949	2
1	1025	5.072369343409	2
1	1026	5.080834894183	2
1	1027	5.085169525283	2
1	1028	5.085573824884	2
1	1029	5.101068961981	2
1	1030	5.112397352979	2
1	1031	5.115965474203	2
1	1032	5.117706068866	2
1	1033	5.121906957557	2
1	1034	5.125018074801	2
1	1035	5.135428682041	2
1	1036	5.139371709818	2
1	1037	5.143434268745	2
1	1038	5.147319040924	2
1	1039	5.150206234972	2
1	1040	5.152461387906	2
1	1041	5.157733790941	2
1	1042	5.163607854825	2
1	1043	5.167309106548	2
1	1044	5.170476199949	2
1	1045	5.172369343409	2
1	1046	5.175144180893	2
1	1047	5.185169525283	2
1	1048	5.185573824884	2
1	1049	5.201068961981	2
1	1050	5.212397352979	2
1	1051	5.215965474203	2
1	1052	5.217706068866	2
1	1053	5.221906957557	2
1	1054	5.225018074801	2
1	1055	5.235428682041	2
1	1056	5.239371709818	2
1	1057	5.243434268745	2
1	1058	5.247319040924	2
1	1059	5.250206234972	2
1	1060	5.252461387906	2
1	1061	5.257733790941	2
1	1062	5.263607854825	2
1	1063	5.267309106548	2
1	1064	5.270476199949	2
1	1065	5.272369343409	2
1	1066	5.275144180893	2
1	1067	5.285169525283	2
1	1068	5.285573824884	2
1	1069	5.301068961981	2
1	1070	5.312397352979	2
1	1071	5.315965474203	2
1	1072	5.317706068866	2
1	1073	5.321906957557	2
1	1074	5.325018074801	2
1	1075	5.335428682041	2
1	1076	5.339371709818	2
1	1077	5.343434268745	2
1	1078	5.347319040924	2
1	1079	5.34943799823	2
1	1080	5.350206234972	2
1	1081	5.352461387906	2
1	1082	5.357733790941	2
1	1083	5.367309106548	2
1	1084	5.370476199949	2
1	1085	5.372369343409	2
1	1086	5.375144180893	2
1	1087	5.385169525283	2
1	1088	5.385573824884	2
1	1089	5.392466132818	2
1	1090	5.401068961981	2
1	1091	5.412397352979	2
1	1092	5.415965474203	2
1	1093	5.417706068866	2
1	1094	5.425018074801	2
1	1095	5.435428682041	2
1	1096	5.439371709818	2
1	1097	5.443434268745	2
1	1098	5.447319040924	2
1	1099	5.44943799823	2
1	1100	5.450206234972	2
1	1101	5.452461387906	2
1	1102	5.456342675274	2
1	1103	5.457733790941	2
1	1104	5.467309106548	2
1	1105	5.470476199949	2
1	1106	5.475144180893	2
1	1107	5.485169525283	2
1	1108	5.485573824884	2
1	1109	5.492466132818	2
1	1110	5.501068961981	2
1	1111	5.512397352979	2
1	1112	5.515965474203	2
1	1113	5.517706068866	2
1	1114	5.525018074801	2
1	1115	5.535428682041	2
1	1116	5.539371709818	2
1	1117	5.543434268745	2
1	1118	5.547319040924	2
1	1119	5.54943799823	2
1	1120	5.550206234972	2
1	1121	5.552461387906	2
1	1122	5.556342675274	2
1	1123	5.557733790941	2
1	1124	5.565021924094	2
1	1125	5.567309106548	2
1	1126	5.570476199949	2
1	1127	5.575144180893	2
1	1128	5.585169525283	2
1	1129	5.585573824884	2
1	1130	5.592466132818	2
1	1131	5.601068961981	2
1	1132	5.612397352979	2
1	1133	5.615965474203	2
1	1134	5.617706068866	2
1	1135	5.625018074801	2
1	1136	5.635428682041	2
1	1137	5.639371709818	2
1	1138	5.643434268745	2
1	1139	5.647319040924	2
1	1140	5.64943799823	2
1	1141	5.650206234972	2
1	1142	5.652461387906	2
1	1143	5.653654524105	2
1	1144	5.656342675274	2
1	1145	5.665021924094	2
1	1146	5.670476199949	2
1	1147	5.675144180893	2
1	1148	5.685169525283	2
1	1149	5.685573824884	2
1	1150	5.692466132818	2
1	1151	5.701068961981	2
1	1152	5.705037070456	2
1	1153	5.711552159608	2
1	1154	5.712397352979	2
1	1155	5.715965474203	2
1	1156	5.725018074801	2
1	1157	5.735428682041	2
1	1158	5.739371709818	2
1	1159	5.743434268745	2
1	1160	5.747319040924	2
1	1161	5.74943799823	2
1	1162	5.750206234972	2
1	1163	5.752461387906	2
1	1164	5.753654524105	2
1	1165	5.756342675274	2
1	1166	5.765021924094	2
1	1167	5.770476199949	2
1	1168	5.775144180893	2
1	1169	5.785573824884	2
1	1170	5.792466132818	2
1	1171	5.801068961981	2
1	1172	5.805037070456	2
1	1173	5.811552159608	2
1	1174	5.812397352979	2
1	1175	5.815965474203	2
1	1176	5.825018074801	2
1	1177	5.835428682041	2
1	1178	5.839371709818	2
1	1179	5.843434268745	2
1	1180	5.847319040924	2
1	1181	5.84943799823	2
1	1182	5.850206234972	2
1	1183	5.852461387906	2
1	1184	5.853654524105	2
1	1185	5.856342675274	2
1	1186	5.865021924094	2
1	1187	5.870476199949	2
1	1188	5.875144180893	2
1	1189	5.885573824884	2
1	1190	5.892466132818	2
1	1191	5.901068961981	2
1	1192	5.905037070456	2
1	1193	5.911552159608	2
1	1194	5.912397352979	2
1	1195	5.915965474203	2
1	1196	5.925018074801	2
1	1197	5.927919525885	2
1	1198	5.935428682041	2
1	1199	5.939371709818	2
1	1200	5.943434268745	2
1	1201	5.947319040924	2
1	1202	5.94943799823	2
1	1203	5.950206234972	2
1	1204	5.953654524105	2
1	1205	5.956342675274	2
1	1206	5.965021924094	2
1	1207	5.970476199949	2
1	1208	5.975144180893	2
1	1209	5.985573824884	2
1	1210	5.992466132818	2
1	1211	6.001068961981	2
1	1212	6.005037070456	2
1	1213	6.011552159608	2
1	1214	6.012397352979	2
1	1215	6.013649149874	2
1	1216	6.015965474203	2
1	1217	6.025018074801	2
1	1218	6.027919525885	2
1	1219	6.035428682041	2
1	1220	6.039371709818	2
1	1221	6.043434268745	2
1	1222	6.047319040924	2
1	1223	6.04943799823	2
1	1224	6.050206234972	2
1	1225	6.053654524105	2
1	1226	6.056342675274	2
1	1227	6.065021924094	2
1	1228	6.070476199949	2
1	1229	6.075144180893	2
1	1230	6.085573824884	2
1	1231	6.092466132818	2
1	1232	6.105037070456	2
1	1233	6.111552159608	2
1	1234	6.112397352979	2
1	1235	6.113649149874	2
1	1236	6.115965474203	2
1	1237	6.125018074801	2
1	1238	6.125609692785	2
1	1239	6.127919525885	2
1	1240	6.135428682041	2
1	1241	6.139371709818	2
1	1242	6.143434268745	2
1	1243	6.14943799823	2
1	1244	6.150206234972	2
1	1245	6.153654524105	2
1	1246	6.156342675274	2
1	1247	6.165021924094	2
1	1248	6.170476199949	2
1	1249	6.174261992869	2
1	1250	6.175144180893	2
1	1251	6.185573824884	2
1	1252	6.192466132818	2
1	1253	6.205037070456	2
1	1254	6.211552159608	2
1	1255	6.212397352979	2
1	1256	6.213649149874	2
1	1257	6.215965474203	2
1	1258	6.225609692785	2
1	1259	6.227919525885	2
1	1260	6.235428682041	2
1	1261	6.239371709818	2
1	1262	6.243434268745	2
1	1263	6.24943799823	2
1	1264	6.250206234972	2
1	1265	6.253654524105	2
1	1266	6.256342675274	2
1	1267	6.265021924094	2
1	1268	6.270476199949	2
1	1269	6.274261992869	2
1	1270	6.275144180893	2
1	1271	6.285573824884	2
1	1272	6.292466132818	2
1	1273	6.305037070456	2
1	1274	6.311552159608	2
1	1275	6.312397352979	2
1	1276	6.313649149874	2
1	1277	6.315965474203	2
1	1278	6.321610671208	2
1	1279	6.325609692785	2
1	1280	6.327919525885	2
1	1281	6.335428682041	2
1	1282	6.343434268745	2
1	1283	6.34943799823	2
1	1284	6.350206234972	2
1	1285	6.353654524105	2
1	1286	6.356342675274	2
1	1287	6.365021924094	2
1	1288	6.370476199949	2
1	1289	6.374261992869	2
1	1290	6.375144180893	2
1	1291	6.385573824884	2
1	1292	6.392466132818	2
1	1293	6.405037070456	2
1	1294	6.411552159608	2
1	1295	6.412397352979	2
1	1296	6.413649149874	2
1	1297	6.415965474203	2
1	1298	6.421298950061	2
1	1299	6.421610671208	2
1	1300	6.425609692785	2
1	1301	6.427919525885	2
1	1302	6.443434268745	2
1	1303	6.44943799823	2
1	1304	6.450206234972	2
1	1305	6.453654524105	2
1	1306	6.456342675274	2
1	1307	6.465021924094	2
1	1308	6.470476199949	2
1	1309	6.474261992869	2
1	1310	6.475144180893	2
1	1311	6.485573824884	2
1	1312	6.492466132818	2
1	1313	6.505037070456	2
1	1314	6.511552159608	2
1	1315	6.512397352979	2
1	1316	6.513649149874	2
1	1317	6.515965474203	2
1	1318	6.517951438833	2
1	1319	6.521298950061	2
1	1320	6.521610671208	2
1	1321	6.525609692785	2
1	1322	6.527919525885	2
1	1323	6.543434268745	2
1	1324	6.54943799823	2
1	1325	6.553654524105	2
1	1326	6.556342675274	2
1	1327	6.565021924094	2
1	1328	6.570476199949	2
1	1329	6.574261992869	2
1	1330	6.575144180893	2
1	1331	6.585573824884	2
1	1332	6.592466132818	2
1	1333	6.605037070456	2
1	1334	6.611552159608	2
1	1335	6.612397352979	2
1	1336	6.613649149874	2
1	1337	6.615965474203	2
1	1338	6.617951438833	2
1	1339	6.621298950061	2
1	1340	6.621610671208	2
1	1341	6.625609692785	2
1	1342	6.627919525885	2
1	1343	6.633910259535	2
1	1344	6.643434268745	2
1	1345	6.64943799823	2
1	1346	6.653654524105	2
1	1347	6.656342675274	2
1	1348	6.665021924094	2
1	1349	6.670476199949	2
1	1350	6.674261992869	2
1	1351	6.675144180893	2
1	1352	6.685573824884	2
1	1353	6.692466132818	2
1	1354	6.705037070456	2
1	1355	6.711552159608	2
1	1356	6.712397352979	2
1	1357	6.713649149874	2
1	1358	6.717951438833	2
1	1359	6.721298950061	2
1	1360	6.721610671208	2
1	1361	6.725609692785	2
1	1362	6.727919525885	2
1	1363	6.733910259535	2
1	1364	6.743434268745	2
1	1365	6.74943799823	2
1	1366	6.753654524105	2
1	1367	6.756342675274	2
1	1368	6.765021924094	2
1	1369	6.770476199949	2
1	1370	6.774261992869	2
1	1371	6.775144180893	2
1	1372	6.785573824884	2
1	1373	6.792466132818	2
1	1374	6.805037070456	2
1	1375	6.811552159608	2
1	1376	6.812397352979	2
1	1377	6.813649149874	2
1	1378	6.817951438833	2
1	1379	6.821298950061	2
1	1380	6.821610671208	2
1	1381	6.825609692785	2
1	1382	6.827919525885	2
1	1383	6.833910259535	2
1	1384	6.843434268745	2
1	1385	6.84943799823	2
1	1386	6.852070509106	2
1	1387	6.853654524105	2
1	1388	6.856342675274	2
1	1389	6.865021924094	2
1	1390	6.870476199949	2
1	1391	6.874261992869	2
1	1392	6.875144180893	2
1	1393	6.892466132818	2
1	1394	6.905037070456	2
1	1395	6.911552159608	2
1	1396	6.912397352979	2
1	1397	6.913649149874	2
1	1398	6.917951438833	2
1	1399	6.921298950061	2
1	1400	6.921610671208	2
1	1401	6.925609692785	2
1	1402	6.927919525885	2
1	1403	6.933910259535	2
1	1404	6.943434268745	2
1	1405	6.94943799823	2
1	1406	6.952070509106	2
1	1407	6.953654524105	2
1	1408	6.956342675274	2
1	1409	6.965021924094	2
1	1410	6.970476199949	2
1	1411	6.974261992869	2
1	1412	6.975144180893	2
1	1413	6.992466132818	2
1	1414	7.005037070456	2
1	1415	7.011552159608	2
1	1416	7.012397352979	2
1	1417	7.013649149874	2
1	1418	7.017951438833	2
1	1419	7.021298950061	2
1	1420	7.021610671208	2
1	1421	7.025609692785	2
1	1422	7.027919525885	2
1	1423	7.033910259535	2
1	1424	7.041268009049	2
1	1425	7.043285083462	2
1	1426	7.043434268745	2
1	1427	7.04943799823	2
1	1428	7.052070509106	2
1	1429	7.053654524105	2
1	1430	7.056342675274	2
1	1431	7.065021924094	2
1	1432	7.070476199949	2
1	1433	7.074261992869	2
1	1434	7.092466132818	2
1	1435	7.105037070456	2
1	1436	7.111552159608	2
1	1437	7.112397352979	2
1	1438	7.113649149874	2
1	1439	7.117951438833	2
1	1440	7.121298950061	2
1	1441	7.121610671208	2
1	1442	7.125609692785	2
1	1443	7.128359088166	2
1	1444	7.133910259535	2
1	1445	7.141268009049	2
1	1446	7.143285083462	2
1	1447	7.143434268745	2
2	21	0.2	0
2	41	0.3	0
2	61	0.4	0
2	81	0.5	0
2	101	0.6	0
2	121	0.7	0
2	141	0.8	0
2	161	0.9	0
2	181	1	0
2	201	1.1	0
2	221	1.127851431333	0
2	222	1.164911113167	0
2	223	1.2	0
2	241	1.227851431333	0
2	242	1.264911113167	0
2	243	1.3	0
2	261	1.327851431333	0
2	262	1.364911113167	0
2	263	1.4	0
2	281	1.427851431333	0
2	282	1.464911113167	0
2	283	1.479678875654	0
2	284	1.490707044307	0
2	285	1.5	0
2	301	1.527851431333	0
2	302	1.564911113167	0
2	303	1.579678875654	0
2	304	1.590707044307	0
2	305	1.6	0
2	321	1.627851431333	0
2	322	1.664911113167	0
2	323	1.679678875654	0
2	324	1.690707044307	0
2	325	1.7	0
2	341	1.727851431333	0
2	342	1.764911113167	0
2	343	1.779678875654	0
2	344	1.790707044307	0
2	345	1.796616490851	0
2	346	1.8	0
2	361	1.827851431333	0
2	362	1.864911113167	0
2	363	1.879678875654	0
2	364	1.890707044307	0
2	365	1.896616490851	0
2	366	1.9	0
2	381	1.927851431333	0
2	382	1.948268631707	0
2	383	1.964911113167	0
2	384	1.979678875654	0
2	385	1.990707044307	0
2	386	1.996616490851	0
2	387	2	0
2	401	2.027851431333	0
2	402	2.048268631707	0
2	403	2.048702660922	0
2	404	2.064911113167	0
2	405	2.079678875654	0
2	406	2.090707044307	0
2	407	2.096616490851	0
2	408	2.1	0
2	421	2.115570372836	0
2	422	2.127851431333	0
2	423	2.148268631707	0
2	424	2.148702660922	0
2	425	2.164911113167	0
2	426	2.172189097535	0
2	427	2.179678875654	0
2	428	2.188253834944	0
2	429	2.190707044307	0
2	430	2.196616490851	0
2	431	2.2	0
2	441	2.215570372836	0
2	442	2.220875047244	0
2	443	2.227851431333	0
2	444	2.237732722325	0
2	445	2.248268631707	0
2	446	2.248702660922	0
2	447	2.264911113167	0
2	448	2.272189097535	0
2	449	2.279678875654	0
2	450	2.288253834944	0
2	451	2.290707044307	0
2	452	2.296616490851	0
2	453	2.3	0
2	461	2.315570372836	0
2	462	2.320875047244	0
2	463	2.327851431333	0
2	464	2.337732722325	0
2	465	2.341572609874	0
2	466	2.348268631707	0
2	467	2.348702660922	0
2	468	2.364911113167	0
2	469	2.372189097535	0
2	470	2.379678875654	0
2	471	2.387342478341	0
2	472	2.388253834944	0
2	473	2.390707044307	0
2	474	2.396616490851	0
2	475	2.4	0
2	482	2.41015636109	0
2	483	2.415570372836	0
2	484	2.420875047244	0
2	485	2.437732722325	0
2	486	2.441572609874	0
2	487	2.445847315522	0
2	488	2.448268631707	0
2	489	2.448702660922	0
2	490	2.464911113167	0
2	491	2.472189097535	0
2	492	2.479678875654	0
2	493	2.487342478341	0
2	494	2.488253834944	0
2	495	2.490707044307	0
2	496	2.496616490851	0
2	497	2.5	0
2	502	2.51015636109	0
2	503	2.515570372836	0
2	504	2.520875047244	0
2	505	2.537732722325	0
2	506	2.541572609874	0
2	507	2.545847315522	0
2	508	2.548268631707	0
2	509	2.548702660922	0
2	510	2.554939140705	0
2	511	2.564911113167	0
2	512	2.572189097535	0
2	513	2.579678875654	0
2	514	2.583678761189	0
2	515	2.587342478341	0
2	516	2.588253834944	0
2	517	2.590707044307	0
2	518	2.596616490851	0
2	519	2.6	0
2	522	2.61015636109	0
2	523	2.615570372836	0
2	524	2.620875047244	0
2	525	2.637732722325	0
2	526	2.641572609874	0
2	527	2.645847315522	0
2	528	2.648268631707	0
2	529	2.648702660922	0
2	530	2.654939140705	0
2	531	2.664911113167	0
2	532	2.672189097535	0
2	533	2.679678875654	0
2	534	2.683678761189	0
2	535	2.687342478341	0
2	536	2.688253834944	0
2	537	2.690707044307	0
2	538	2.696616490851	0
2	539	2.7	0
2	542	2.71015636109	0
2	543	2.715570372836	0
2	544	2.716883848591	0
2	545	2.720875047244	0
2	546	2.737732722325	0
2	547	2.741572609874	0
2	548	2.745847315522	0
2	549	2.748268631707	0
2	550	2.748702660922	0
2	551	2.754939140705	0
2	552	2.764911113167	0
2	553	2.772189097535	0
2	554	2.779678875654	0
2	555	2.783678761189	0
2	556	2.787342478341	0
2	557	2.788253834944	0
2	558	2.790707044307	0
2	559	2.796616490851	0
2	560	2.8	0
2	562	2.81015636109	0
2	563	2.815570372836	0
2	564	2.816883848591	0
2	565	2.820875047244	0
2	566	2.837732722325	0
2	567	2.841572609874	0
2	568	2.845847315522	0
2	569	2.847389030358	0
2	570	2.848268631707	0
2	571	2.848702660922	0
2	572	2.854939140705	0
2	573	2.857733790941	0
2	574	2.872189097535	0
2	575	2.879678875654	0
2	576	2.883678761189	0
2	577	2.887342478341	0
2	578	2.888253834944	0
2	579	2.890707044307	0
2	580	2.896616490851	0
2	581	2.9	0
2	582	2.91015636109	0
2	583	2.915570372836	0
2	584	2.916883848591	0
2	585	2.920875047244	0
2	586	2.937732722325	0
2	587	2.941572609874	0
2	588	2.945847315522	0
2	589	2.947389030358	0
2	590	2.948268631707	0
2	591	2.948702660922	0
2	592	2.954939140705	0
2	593	2.957733790941	0
2	594	2.972189097535	0
2	595	2.979678875654	0
2	596	2.983678761189	0
2	597	2.987342478341	0
2	598	2.988253834944	0
2	599	2.990707044307	0
2	600	2.996616490851	0
2	601	3	0
2	602	3.001068961981	0
2	603	3.01015636109	0
2	604	3.015570372836	0
2	605	3.016883848591	0
2	606	3.020875047244	0
2	607	3.037732722325	0
2	608	3.041572609874	0
2	609	3.045847315522	0
2	610	3.047389030358	0
2	611	3.048268631707	0
2	612	3.048702660922	0
2	613	3.054939140705	0
2	614	3.057733790941	0
2	615	3.072189097535	0
2	616	3.079678875654	0
2	617	3.083678761189	0
2	618	3.087342478341	0
2	619	3.088253834944	0
2	620	3.090707044307	0
2	621	3.096616490851	0
2	622	3.101068961981	0
2	623	3.11015636109	0
2	624	3.115570372836	0
2	625	3.116883848591	0
2	626	3.120875047244	0
2	627	3.137732722325	0
2	628	3.141572609874	0
2	629	3.145847315522	0
2	630	3.147389030358	0
2	631	3.148268631707	0
2	632	3.148702660922	0
2	633	3.154939140705	0
2	634	3.157733790941	0
2	635	3.163607854825	0
2	636	3.172189097535	0
2	637	3.179678875654	0
2	638	3.183678761189	0
2	639	3.187342478341	0
2	640	3.188253834944	0
2	641	3.196616490851	0
2	642	3.201068961981	0
2	643	3.21015636109	0
2	644	3.215570372836	0
2	645	3.216883848591	0
2	646	3.220875047244	0
2	647	3.237732722325	0
2	648	3.241572609874	0
2	649	3.245847315522	0
2	650	3.247389030358	0
2	651	3.248268631707	0
2	652	3.248702660922	0
2	653	3.254939140705	0
2	654	3.257733790941	0
2	655	3.263607854825	0
2	656	3.272189097535	0
2	657	3.279678875654	0
2	658	3.283678761189	0
2	659	3.287342478341	0
2	660	3.288253834944	0
2	661	3.296616490851	0
2	662	3.301068961981	0
2	663	3.31015636109	0
2	664	3.315570372836	0
2	665	3.316883848591	0
2	666	3.320875047244	0
2	667	3.337732722325	0
2	668	3.341572609874	0
2	669	3.345847315522	0
2	670	3.347389030358	0
2	671	3.348268631707	0
2	672	3.348702660922	0
2	673	3.354939140705	0
2	674	3.357733790941	0
2	675	3.363607854825	0
2	676	3.372189097535	0
2	677	3.379678875654	0
2	678	3.383678761189	0
2	679	3.387342478341	0
2	680	3.388253834944	0
2	681	3.396616490851	0
2	682	3.401068961981	0
2	683	3.41015636109	0
2	684	3.415570372836	0
2	685	3.416883848591	0
2	686	3.420875047244	0
2	687	3.437732722325	0
2	688	3.441572609874	0
2	689	3.445847315522	0
2	690	3.447389030358	0
2	691	3.448268631707	0
2	692	3.448702660922	0
2	693	3.454939140705	0
2	694	3.457733790941	0
2	695	3.463607854825	0
2	696	3.472189097535	0
2	697	3.479678875654	0
2	698	3.483678761189	0
2	699	3.487342478341	0
2	700	3.488253834944	0
2	701	3.496616490851	0
2	702	3.501068961981	0
2	703	3.51015636109	0
2	704	3.515570372836	0
2	705	3.516883848591	0
2	706	3.520875047244	0
2	707	3.537732722325	0
2	708	3.541572609874	0
2	709	3.545847315522	0
2	710	3.547389030358	0
2	711	3.548268631707	0
2	712	3.548702660922	0
2	713	3.552461387906	0
2	714	3.554939140705	0
2	715	3.557733790941	0
2	716	3.563607854825	0
2	717	3.572189097535	0
2	718	3.57964099989	0
2	719	3.579678875654	0
2	720	3.583678761189	0
2	721	3.587342478341	0
[...]
59	632	3.148702660922	0
59	633	3.154939140705	0
59	634	3.157733790941	0
59	635	3.163607854825	0
59	636	3.172189097535	0
59	637	3.179678875654	0
59	638	3.183678761189	0
59	639	3.187342478341	0
59	640	3.188253834944	0
59	641	3.196616490851	0
59	642	3.201068961981	0
59	643	3.21015636109	0
59	644	3.215570372836	0
59	645	3.216883848591	0
59	646	3.220875047244	0
59	647	3.237732722325	0
59	648	3.241572609874	0
59	649	3.245847315522	0
59	650	3.247389030358	0
59	651	3.248268631707	0
59	652	3.248702660922	0
59	653	3.254939140705	0
59	654	3.257733790941	0
59	655	3.263607854825	0
59	656	3.272189097535	0
59	657	3.279678875654	0
59	658	3.283678761189	0
59	659	3.287342478341	0
59	660	3.288253834944	0
59	661	3.296616490851	0
59	662	3.301068961981	0
59	663	3.31015636109	0
59	664	3.315570372836	0
59	665	3.316883848591	0
59	666	3.320875047244	0
59	667	3.337732722325	0
59	668	3.341572609874	0
59	669	3.345847315522	0
59	670	3.347389030358	0
59	671	3.348268631707	0
59	672	3.348702660922	0
59	673	3.354939140705	0
59	674	3.357733790941	0
59	675	3.363607854825	0
59	676	3.372189097535	0
59	677	3.379678875654	0
59	678	3.383678761189	0
59	679	3.387342478341	0
59	680	3.388253834944	0
59	681	3.396616490851	0
59	682	3.401068961981	0
59	683	3.41015636109	0
59	684	3.415570372836	0
59	685	3.416883848591	0
59	686	3.420875047244	0
59	687	3.437732722325	0
59	688	3.441572609874	0
59	689	3.445847315522	0
59	690	3.447389030358	0
59	691	3.448268631707	0
59	692	3.448702660922	0
59	693	3.454939140705	0
59	694	3.457733790941	0
59	695	3.463607854825	0
59	696	3.472189097535	0
59	697	3.479678875654	0
59	698	3.483678761189	0
59	699	3.487342478341	0
59	700	3.488253834944	0
59	701	3.496616490851	0
59	702	3.501068961981	0
59	703	3.51015636109	0
59	704	3.515570372836	0
59	705	3.516883848591	0
59	706	3.520875047244	0
59	707	3.537732722325	0
59	708	3.541572609874	0
59	709	3.545847315522	0
59	710	3.547389030358	0
59	711	3.548268631707	0
59	712	3.548702660922	0
59	713	3.552461387906	0
59	714	3.554939140705	0
59	715	3.557733790941	0
59	716	3.563607854825	0
59	717	3.572189097535	0
59	718	3.57964099989	0
59	719	3.579678875654	0
59	720	3.583678761189	0
59	721	3.587342478341	0
59	722	3.601068961981	0
59	723	3.61015636109	0
59	724	3.615570372836	0
59	725	3.616883848591	0
59	726	3.620875047244	0
59	727	3.637732722325	0
59	728	3.641572609874	0
59	729	3.645847315522	0
59	730	3.647389030358	0
59	731	3.648268631707	0
59	732	3.648702660922	0
59	733	3.652461387906	0
59	734	3.654939140705	0
59	735	3.657733790941	0
59	736	3.663607854825	0
59	737	3.667309106548	0
59	738	3.672189097535	0
59	739	3.67964099989	0
59	740	3.679678875654	0
59	741	3.680834894183	0
59	742	3.683678761189	0
59	743	3.685169525283	0
59	744	3.687342478341	0
59	745	3.701068961981	0
59	746	3.71015636109	0
59	747	3.716883848591	0
59	748	3.720875047244	0
59	749	3.737732722325	0
59	750	3.745847315522	0
59	751	3.747319040924	0
59	752	3.747389030358	0
59	753	3.748702660922	0
59	754	3.752461387906	0
59	755	3.754939140705	0
59	756	3.757733790941	0
59	757	3.763607854825	0
59	758	3.767309106548	0
59	759	3.772189097535	0
59	760	3.77964099989	0
59	761	3.780834894183	0
59	762	3.783678761189	0
59	763	3.785169525283	0
59	764	3.787342478341	0
59	765	3.801068961981	0
59	766	3.81015636109	0
59	767	3.816883848591	0
59	768	3.820875047244	0
59	769	3.825018074801	0
59	770	3.837732722325	0
59	771	3.845847315522	0
59	772	3.847319040924	0
59	773	3.847389030358	0
59	774	3.848702660922	0
59	775	3.852461387906	0
59	776	3.854939140705	0
59	777	3.857733790941	0
59	778	3.863607854825	0
59	779	3.867309106548	0
59	780	3.872369343409	0
59	781	3.87964099989	0
59	782	3.880834894183	0
59	783	3.883678761189	0
59	784	3.885169525283	0
59	785	3.887342478341	0
59	786	3.901068961981	0
59	787	3.91015636109	0
59	788	3.916883848591	0
59	789	3.925018074801	0
59	790	3.937732722325	0
59	791	3.945847315522	0
59	792	3.947319040924	0
59	793	3.947389030358	0
59	794	3.948702660922	0
59	795	3.952461387906	0
59	796	3.954939140705	0
59	797	3.957733790941	0
59	798	3.963607854825	0
59	799	3.967309106548	0
59	800	3.972369343409	0
59	801	3.97964099989	0
59	802	3.980834894183	0
59	803	3.983678761189	0
59	804	3.985169525283	0
59	805	3.987342478341	0
59	806	4.001068961981	0
59	807	4.01015636109	0
59	808	4.016883848591	0
59	809	4.025018074801	0
59	810	4.037732722325	0
59	811	4.039371709818	0
59	812	4.045847315522	0
59	813	4.047319040924	0
59	814	4.047389030358	0
59	815	4.048702660922	0
59	816	4.052461387906	0
59	817	4.054939140705	0
59	818	4.057733790941	0
59	819	4.063607854825	0
59	820	4.067309106548	0
59	821	4.072369343409	0
59	822	4.07964099989	0
59	823	4.080834894183	0
59	824	4.083678761189	0
59	825	4.085169525283	0
59	826	4.101068961981	0
59	827	4.11015636109	0
59	828	4.116883848591	0
59	829	4.125018074801	0
59	830	4.135428682041	0
59	831	4.137732722325	0
59	832	4.139371709818	0
59	833	4.145847315522	0
59	834	4.147319040924	0
59	835	4.147389030358	0
59	836	4.148702660922	0
59	837	4.152461387906	0
59	838	4.154939140705	0
59	839	4.157733790941	0
59	840	4.163607854825	0
59	841	4.167309106548	0
59	842	4.172369343409	0
59	843	4.17964099989	0
59	844	4.180834894183	0
59	845	4.185169525283	0
59	846	4.201068961981	0
59	847	4.21015636109	0
59	848	4.216883848591	0
59	849	4.221906957557	0
59	850	4.225018074801	0
59	851	4.235428682041	0
59	852	4.237732722325	0
59	853	4.239371709818	0
59	854	4.245847315522	0
59	855	4.247319040924	0
59	856	4.247389030358	0
59	857	4.248702660922	0
59	858	4.252461387906	0
59	859	4.257733790941	0
59	860	4.263607854825	0
59	861	4.267309106548	0
59	862	4.272369343409	0
59	863	4.27964099989	0
59	864	4.280834894183	0
59	865	4.285169525283	0
59	866	4.301068961981	0
59	867	4.31015636109	0
59	868	4.315965474203	0
59	869	4.321906957557	0
59	870	4.325018074801	0
59	871	4.335428682041	0
59	872	4.337732722325	0
59	873	4.339371709818	0
59	874	4.345847315522	0
59	875	4.347319040924	0
59	876	4.347389030358	0
59	877	4.348702660922	0
59	878	4.352461387906	0
59	879	4.357733790941	0
59	880	4.363607854825	0
59	881	4.367309106548	0
59	882	4.372369343409	0
59	883	4.37964099989	0
59	884	4.380834894183	0
59	885	4.385169525283	0
59	886	4.401068961981	0
59	887	4.41015636109	0
59	888	4.415965474203	0
59	889	4.421906957557	0
59	890	4.425018074801	0
59	891	4.435428682041	0
59	892	4.437732722325	0
59	893	4.439371709818	0
59	894	4.445847315522	0
59	895	4.447319040924	0
59	896	4.447389030358	0
59	897	4.448702660922	0
59	898	4.450206234972	0
59	899	4.452461387906	0
59	900	4.457733790941	0
59	901	4.463607854825	0
59	902	4.467309106548	0
59	903	4.472369343409	0
59	904	4.47964099989	0
59	905	4.480834894183	0
59	906	4.485169525283	0
59	907	4.485573824884	0
59	908	4.501068961981	0
59	909	4.512397352979	0
59	910	4.515965474203	0
59	911	4.521906957557	0
59	912	4.525018074801	0
59	913	4.535428682041	0
59	914	4.539371709818	0
59	915	4.545847315522	0
59	916	4.547319040924	0
59	917	4.547389030358	0
59	918	4.550206234972	0
59	919	4.552461387906	0
59	920	4.557733790941	0
59	921	4.563607854825	0
59	922	4.567309106548	0
59	923	4.572369343409	0
59	924	4.57964099989	0
59	925	4.580834894183	0
59	926	4.585169525283	0
59	927	4.585573824884	0
59	928	4.601068961981	0
59	929	4.612397352979	0
59	930	4.615965474203	0
59	931	4.621906957557	0
59	932	4.625018074801	0
59	933	4.635428682041	0
59	934	4.639371709818	0
59	935	4.643434268745	0
59	936	4.645847315522	0
59	937	4.647319040924	0
59	938	4.647389030358	0
59	939	4.650206234972	0
59	940	4.652461387906	0
59	941	4.657733790941	0
59	942	4.663607854825	0
59	943	4.667309106548	0
59	944	4.672369343409	0
59	945	4.680834894183	0
59	946	4.685169525283	0
59	947	4.685573824884	0
59	948	4.701068961981	0
59	949	4.712397352979	0
59	950	4.715965474203	0
59	951	4.717706068866	0
59	952	4.721906957557	0
59	953	4.725018074801	0
59	954	4.735428682041	0
59	955	4.739371709818	0
59	956	4.743434268745	0
59	957	4.745847315522	0
59	958	4.747319040924	0
59	959	4.750206234972	0
59	960	4.752461387906	0
59	961	4.757733790941	0
59	962	4.763607854825	0
59	963	4.767309106548	0
59	964	4.770476199949	0
59	965	4.772369343409	0
59	966	4.780834894183	0
59	967	4.785169525283	0
59	968	4.785573824884	0
59	969	4.801068961981	0
59	970	4.812397352979	0
59	971	4.815965474203	0
59	972	4.817706068866	0
59	973	4.821906957557	0
59	974	4.825018074801	0
59	975	4.835428682041	0
59	976	4.839371709818	0
59	977	4.843434268745	0
59	978	4.847319040924	0
59	979	4.850206234972	0
59	980	4.852461387906	0
59	981	4.857733790941	0
59	982	4.863607854825	0
59	983	4.867309106548	0
59	984	4.870476199949	0
59	985	4.872369343409	0
59	986	4.880834894183	0
59	987	4.885169525283	0
59	988	4.885573824884	0
59	989	4.901068961981	0
59	990	4.912397352979	0
59	991	4.915965474203	0
59	992	4.917706068866	0
59	993	4.921906957557	0
59	994	4.925018074801	0
59	995	4.935428682041	0
59	996	4.939371709818	0
59	997	4.943434268745	0
59	998	4.947319040924	0
59	999	4.950206234972	0
59	1000	4.952461387906	0
59	1001	4.957733790941	0
59	1002	4.963607854825	0
59	1003	4.967309106548	0
59	1004	4.970476199949	0
59	1005	4.972369343409	0
59	1006	4.980834894183	0
59	1007	4.985169525283	0
59	1008	4.985573824884	0
59	1009	5.001068961981	0
59	1010	5.012397352979	0
59	1011	5.015965474203	0
59	1012	5.017706068866	0
59	1013	5.021906957557	0
59	1014	5.025018074801	0
59	1015	5.035428682041	0
59	1016	5.039371709818	0
59	1017	5.043434268745	0
59	1018	5.047319040924	0
59	1019	5.050206234972	0
59	1020	5.052461387906	0
59	1021	5.057733790941	0
59	1022	5.063607854825	0
59	1023	5.067309106548	0
59	1024	5.070476199949	0
59	1025	5.072369343409	0
59	1026	5.080834894183	0
59	1027	5.085169525283	0
59	1028	5.085573824884	0
59	1029	5.101068961981	0
59	1030	5.112397352979	0
59	1031	5.115965474203	0
59	1032	5.117706068866	0
59	1033	5.121906957557	0
59	1034	5.125018074801	0
59	1035	5.135428682041	0
59	1036	5.139371709818	0
59	1037	5.143434268745	0
59	1038	5.147319040924	0
59	1039	5.150206234972	0
59	1040	5.152461387906	0
59	1041	5.157733790941	0
59	1042	5.163607854825	0
59	1043	5.167309106548	0
59	1044	5.170476199949	0
59	1045	5.172369343409	0
59	1046	5.175144180893	0
59	1047	5.185169525283	0
59	1048	5.185573824884	0
59	1049	5.201068961981	0
59	1050	5.212397352979	0
59	1051	5.215965474203	0
59	1052	5.217706068866	0
59	1053	5.221906957557	0
59	1054	5.225018074801	0
59	1055	5.235428682041	0
59	1056	5.239371709818	0
59	1057	5.243434268745	0
59	1058	5.247319040924	0
59	1059	5.250206234972	0
59	1060	5.252461387906	0
59	1061	5.257733790941	0
59	1062	5.263607854825	0
59	1063	5.267309106548	0
59	1064	5.270476199949	0
59	1065	5.272369343409	0
59	1066	5.275144180893	0
59	1067	5.285169525283	0
59	1068	5.285573824884	0
59	1069	5.301068961981	0
59	1070	5.312397352979	0
59	1071	5.315965474203	0
59	1072	5.317706068866	0
59	1073	5.321906957557	0
59	1074	5.325018074801	0
59	1075	5.335428682041	0
59	1076	5.339371709818	0
59	1077	5.343434268745	0
59	1078	5.347319040924	0
59	1079	5.34943799823	0
59	1080	5.350206234972	0
59	1081	5.352461387906	0
59	1082	5.357733790941	0
59	1083	5.367309106548	0
59	1084	5.370476199949	0
59	1085	5.372369343409	0
59	1086	5.375144180893	0
59	1087	5.385169525283	0
59	1088	5.385573824884	0
59	1089	5.392466132818	0
59	1090	5.401068961981	0
59	1091	5.412397352979	0
59	1092	5.415965474203	0
59	1093	5.417706068866	0
59	1094	5.425018074801	0
59	1095	5.435428682041	0
59	1096	5.439371709818	0
59	1097	5.443434268745	0
59	1098	5.447319040924	0
59	1099	5.44943799823	0
59	1100	5.450206234972	0
59	1101	5.452461387906	0
59	1102	5.456342675274	0
59	1103	5.457733790941	0
59	1104	5.467309106548	0
59	1105	5.470476199949	0
59	1106	5.475144180893	0
59	1107	5.485169525283	0
59	1108	5.485573824884	0
59	1109	5.492466132818	0
59	1110	5.501068961981	0
59	1111	5.512397352979	0
59	1112	5.515965474203	0
59	1113	5.517706068866	0
59	1114	5.525018074801	0
59	1115	5.535428682041	0
59	1116	5.539371709818	0
59	1117	5.543434268745	0
59	1118	5.547319040924	0
59	1119	5.54943799823	0
59	1120	5.550206234972	0
59	1121	5.552461387906	0
59	1122	5.556342675274	0
59	1123	5.557733790941	0
59	1124	5.565021924094	0
59	1125	5.567309106548	0
59	1126	5.570476199949	0
59	1127	5.575144180893	0
59	1128	5.585169525283	0
59	1129	5.585573824884	0
59	1130	5.592466132818	0
59	1131	5.601068961981	0
59	1132	5.612397352979	0
59	1133	5.615965474203	0
59	1134	5.617706068866	0
59	1135	5.625018074801	0
59	1136	5.635428682041	0
59	1137	5.639371709818	0
59	1138	5.643434268745	0
59	1139	5.647319040924	0
59	1140	5.64943799823	0
59	1141	5.650206234972	0
59	1142	5.652461387906	0
59	1143	5.653654524105	0
59	1144	5.656342675274	0
59	1145	5.665021924094	0
59	1146	5.670476199949	0
59	1147	5.675144180893	0
59	1148	5.685169525283	0
59	1149	5.685573824884	0
59	1150	5.692466132818	0
59	1151	5.701068961981	0
59	1152	5.705037070456	0
59	1153	5.711552159608	0
59	1154	5.712397352979	0
59	1155	5.715965474203	0
59	1156	5.725018074801	0
59	1157	5.735428682041	0
59	1158	5.739371709818	0
59	1159	5.743434268745	0
59	1160	5.747319040924	0
59	1161	5.74943799823	0
59	1162	5.750206234972	0
59	1163	5.752461387906	0
59	1164	5.753654524105	0
59	1165	5.756342675274	0
59	1166	5.765021924094	0
59	1167	5.770476199949	0
59	1168	5.775144180893	0
59	1169	5.785573824884	0
59	1170	5.792466132818	0
59	1171	5.801068961981	0
59	1172	5.805037070456	0
59	1173	5.811552159608	0
59	1174	5.812397352979	0
59	1175	5.815965474203	0
59	1176	5.825018074801	0
59	1177	5.835428682041	0
59	1178	5.839371709818	0
59	1179	5.843434268745	0
59	1180	5.847319040924	0
59	1181	5.84943799823	0
59	1182	5.850206234972	0
59	1183	5.852461387906	0
59	1184	5.853654524105	0
59	1185	5.856342675274	0
59	1186	5.865021924094	0
59	1187	5.870476199949	0
59	1188	5.875144180893	0
59	1189	5.885573824884	0
59	1190	5.892466132818	0
59	1191	5.901068961981	0
59	1192	5.905037070456	0
59	1193	5.911552159608	0
59	1194	5.912397352979	0
59	1195	5.915965474203	0
59	1196	5.925018074801	0
59	1197	5.927919525885	0
59	1198	5.935428682041	0
59	1199	5.939371709818	0
59	1200	5.943434268745	0
59	1201	5.947319040924	0
59	1202	5.94943799823	0
59	1203	5.950206234972	0
59	1204	5.953654524105	0
59	1205	5.956342675274	0
59	1206	5.965021924094	0
59	1207	5.970476199949	0
59	1208	5.975144180893	0
59	1209	5.985573824884	0
59	1210	5.992466132818	0
59	1211	6.001068961981	0
59	1212	6.005037070456	0
59	1213	6.011552159608	0
59	1214	6.012397352979	0
59	1215	6.013649149874	0
59	1216	6.015965474203	0
59	1217	6.025018074801	0
59	1218	6.027919525885	0
59	1219	6.035428682041	0
59	1220	6.039371709818	0
59	1221	6.043434268745	0
59	1222	6.047319040924	0
59	1223	6.04943799823	0
59	1224	6.050206234972	0
59	1225	6.053654524105	0
59	1226	6.056342675274	0
59	1227	6.065021924094	0
59	1228	6.070476199949	0
59	1229	6.075144180893	0
59	1230	6.085573824884	0
59	1231	6.092466132818	0
59	1232	6.105037070456	0
59	1233	6.111552159608	0
59	1234	6.112397352979	0
59	1235	6.113649149874	0
59	1236	6.115965474203	0
59	1237	6.125018074801	0
59	1238	6.125609692785	0
59	1239	6.127919525885	0
59	1240	6.135428682041	0
59	1241	6.139371709818	0
59	1242	6.143434268745	0
59	1243	6.14943799823	0
59	1244	6.150206234972	0
59	1245	6.153654524105	0
59	1246	6.156342675274	0
59	1247	6.165021924094	0
59	1248	6.170476199949	0
59	1249	6.174261992869	0
59	1250	6.175144180893	0
59	1251	6.185573824884	0
59	1252	6.192466132818	0
59	1253	6.205037070456	0
59	1254	6.211552159608	0
59	1255	6.212397352979	0
59	1256	6.213649149874	0
59	1257	6.215965474203	0
59	1258	6.225609692785	0
59	1259	6.227919525885	0
59	1260	6.235428682041	0
59	1261	6.239371709818	0
59	1262	6.243434268745	0
59	1263	6.24943799823	0
59	1264	6.250206234972	0
59	1265	6.253654524105	0
59	1266	6.256342675274	0
59	1267	6.265021924094	0
59	1268	6.270476199949	0
59	1269	6.274261992869	0
59	1270	6.275144180893	0
59	1271	6.285573824884	0
59	1272	6.292466132818	0
59	1273	6.305037070456	0
59	1274	6.311552159608	0
59	1275	6.312397352979	0
59	1276	6.313649149874	0
59	1277	6.315965474203	0
59	1278	6.321610671208	0
59	1279	6.325609692785	0
59	1280	6.327919525885	0
59	1281	6.335428682041	0
59	1282	6.343434268745	0
59	1283	6.34943799823	0
59	1284	6.350206234972	0
59	1285	6.353654524105	0
59	1286	6.356342675274	0
59	1287	6.365021924094	0
59	1288	6.370476199949	0
59	1289	6.374261992869	0
59	1290	6.375144180893	0
59	1291	6.385573824884	0
59	1292	6.392466132818	0
59	1293	6.405037070456	0
59	1294	6.411552159608	0
59	1295	6.412397352979	0
59	1296	6.413649149874	0
59	1297	6.415965474203	0
59	1298	6.421298950061	0
59	1299	6.421610671208	0
59	1300	6.425609692785	0
59	1301	6.427919525885	0
59	1302	6.443434268745	0
59	1303	6.44943799823	0
59	1304	6.450206234972	0
59	1305	6.453654524105	0
59	1306	6.456342675274	0
59	1307	6.465021924094	0
59	1308	6.470476199949	0
59	1309	6.474261992869	0
59	1310	6.475144180893	0
59	1311	6.485573824884	0
59	1312	6.492466132818	0
59	1313	6.505037070456	0
59	1314	6.511552159608	0
59	1315	6.512397352979	0
59	1316	6.513649149874	0
59	1317	6.515965474203	0
59	1318	6.517951438833	0
59	1319	6.521298950061	0
59	1320	6.521610671208	0
59	1321	6.525609692785	0
59	1322	6.527919525885	0
59	1323	6.543434268745	0
59	1324	6.54943799823	0
59	1325	6.553654524105	0
59	1326	6.556342675274	0
59	1327	6.565021924094	0
59	1328	6.570476199949	0
59	1329	6.574261992869	0
59	1330	6.575144180893	0
59	1331	6.585573824884	0
59	1332	6.592466132818	0
59	1333	6.605037070456	0
59	1334	6.611552159608	0
59	1335	6.612397352979	0
59	1336	6.613649149874	0
59	1337	6.615965474203	0
59	1338	6.617951438833	0
59	1339	6.621298950061	0
59	1340	6.621610671208	0
59	1341	6.625609692785	0
59	1342	6.627919525885	0
59	1343	6.633910259535	0
59	1344	6.643434268745	0
59	1345	6.64943799823	0
59	1346	6.653654524105	0
59	1347	6.656342675274	0
59	1348	6.665021924094	0
59	1349	6.670476199949	0
59	1350	6.674261992869	0
59	1351	6.675144180893	0
59	1352	6.685573824884	0
59	1353	6.692466132818	0
59	1354	6.705037070456	0
59	1355	6.711552159608	0
59	1356	6.712397352979	0
59	1357	6.713649149874	0
59	1358	6.717951438833	0
59	1359	6.721298950061	0
59	1360	6.721610671208	0
59	1361	6.725609692785	0
59	1362	6.727919525885	0
59	1363	6.733910259535	0
59	1364	6.743434268745	0
59	1365	6.74943799823	0
59	1366	6.753654524105	0
59	1367	6.756342675274	0
59	1368	6.765021924094	0
59	1369	6.770476199949	0
59	1370	6.774261992869	0
59	1371	6.775144180893	0
59	1372	6.785573824884	0
59	1373	6.792466132818	0
59	1374	6.805037070456	0
59	1375	6.811552159608	0
59	1376	6.812397352979	0
59	1377	6.813649149874	0
59	1378	6.817951438833	0
59	1379	6.821298950061	0
59	1380	6.821610671208	0
59	1381	6.825609692785	0
59	1382	6.827919525885	0
59	1383	6.833910259535	0
59	1384	6.843434268745	0
59	1385	6.84943799823	0
59	1386	6.852070509106	0
59	1387	6.853654524105	0
59	1388	6.856342675274	0
59	1389	6.865021924094	0
59	1390	6.870476199949	0
59	1391	6.874261992869	0
59	1392	6.875144180893	0
59	1393	6.892466132818	0
59	1394	6.905037070456	0
59	1395	6.911552159608	0
59	1396	6.912397352979	0
59	1397	6.913649149874	0
59	1398	6.917951438833	0
59	1399	6.921298950061	0
59	1400	6.921610671208	0
59	1401	6.925609692785	0
59	1402	6.927919525885	0
59	1403	6.933910259535	0
59	1404	6.943434268745	0
59	1405	6.94943799823	0
59	1406	6.952070509106	0
59	1407	6.953654524105	0
59	1408	6.956342675274	0
59	1409	6.965021924094	0
59	1410	6.970476199949	0
59	1411	6.974261992869	0
59	1412	6.975144180893	0
59	1413	6.992466132818	0
59	1414	7.005037070456	0
59	1415	7.011552159608	0
59	1416	7.012397352979	0
59	1417	7.013649149874	0
59	1418	7.017951438833	0
59	1419	7.021298950061	0
59	1420	7.021610671208	0
59	1421	7.025609692785	0
59	1422	7.027919525885	0
59	1423	7.033910259535	0
59	1424	7.041268009049	0
59	1425	7.043285083462	0
59	1426	7.043434268745	0
59	1427	7.04943799823	0
59	1428	7.052070509106	0
59	1429	7.053654524105	0
59	1430	7.056342675274	0
59	1431	7.065021924094	0
59	1432	7.070476199949	0
59	1433	7.074261992869	0
59	1434	7.092466132818	0
59	1435	7.105037070456	0
59	1436	7.111552159608	0
59	1437	7.112397352979	0
59	1438	7.113649149874	0
59	1439	7.117951438833	0
59	1440	7.121298950061	0
59	1441	7.121610671208	0
59	1442	7.125609692785	0
59	1443	7.128359088166	0
59	1444	7.133910259535	0
59	1445	7.141268009049	0
59	1446	7.143285083462	0
59	1447	7.143434268745	0

