version 2
run MassMobility-0-20210505-14:55:42-3484
attr configname MassMobility
attr datetime 20210505-14:55:42
attr experiment MassMobility
attr inifile omnetpp.ini
attr iterationvars ""
attr iterationvarsf ""
attr measurement ""
attr network ParcelDeliveryNetwork
attr processid 3484
attr repetition 0
attr replication #0
attr resultdir results
attr runnumber 0
attr seedset 0
param *.numdrones 5
param **.drone*.mobility.typename "\"MassMobility\""
param **.drone*.mobility.initFromDisplayString false
param **.drone*.mobility.changeInterval "truncnormal(2s, 0.5s)"
param **.drone*.mobility.angleDelta "normal(0deg, 30deg)"
param **.drone*.mobility.speed "truncnormal(15mps, 5mps)"
param **.constraintAreaMinX 0m
param **.constraintAreaMinY 0m
param **.constraintAreaMinZ 0m
param **.constraintAreaMaxX 600m
param **.constraintAreaMaxY 400m
param **.constraintAreaMaxZ 0m
param **.updateInterval 0.1s

vector 0 ParcelDeliveryNetwork.drone[0] coordX:vector ETV
attr interpolationmode linear
attr source xCoord(mobilityPos(mobilityStateChanged))
attr title "coord X, vector"
vector 1 ParcelDeliveryNetwork.drone[0] coordY:vector ETV
attr interpolationmode linear
attr source yCoord(mobilityPos(mobilityStateChanged))
attr title "coord Y, vector"
vector 2 ParcelDeliveryNetwork.drone[0] coordZ:vector ETV
attr interpolationmode linear
attr source zCoord(mobilityPos(mobilityStateChanged))
attr title "coord Z, vector"
vector 3 ParcelDeliveryNetwork.drone[1] coordX:vector ETV
attr interpolationmode linear
attr source xCoord(mobilityPos(mobilityStateChanged))
attr title "coord X, vector"
vector 4 ParcelDeliveryNetwork.drone[1] coordY:vector ETV
attr interpolationmode linear
attr source yCoord(mobilityPos(mobilityStateChanged))
attr title "coord Y, vector"
vector 5 ParcelDeliveryNetwork.drone[1] coordZ:vector ETV
attr interpolationmode linear
attr source zCoord(mobilityPos(mobilityStateChanged))
attr title "coord Z, vector"
vector 6 ParcelDeliveryNetwork.drone[2] coordX:vector ETV
attr interpolationmode linear
attr source xCoord(mobilityPos(mobilityStateChanged))
attr title "coord X, vector"
vector 7 ParcelDeliveryNetwork.drone[2] coordY:vector ETV
attr interpolationmode linear
attr source yCoord(mobilityPos(mobilityStateChanged))
attr title "coord Y, vector"
vector 8 ParcelDeliveryNetwork.drone[2] coordZ:vector ETV
attr interpolationmode linear
attr source zCoord(mobilityPos(mobilityStateChanged))
attr title "coord Z, vector"
vector 9 ParcelDeliveryNetwork.drone[3] coordX:vector ETV
attr interpolationmode linear
attr source xCoord(mobilityPos(mobilityStateChanged))
attr title "coord X, vector"
vector 10 ParcelDeliveryNetwork.drone[3] coordY:vector ETV
attr interpolationmode linear
attr source yCoord(mobilityPos(mobilityStateChanged))
attr title "coord Y, vector"
vector 11 ParcelDeliveryNetwork.drone[3] coordZ:vector ETV
attr interpolationmode linear
attr source zCoord(mobilityPos(mobilityStateChanged))
attr title "coord Z, vector"
vector 12 ParcelDeliveryNetwork.drone[4] coordX:vector ETV
attr interpolationmode linear
attr source xCoord(mobilityPos(mobilityStateChanged))
attr title "coord X, vector"
vector 13 ParcelDeliveryNetwork.drone[4] coordY:vector ETV
attr interpolationmode linear
attr source yCoord(mobilityPos(mobilityStateChanged))
attr title "coord Y, vector"
vector 14 ParcelDeliveryNetwork.drone[4] coordZ:vector ETV
attr interpolationmode linear
attr source zCoord(mobilityPos(mobilityStateChanged))
attr title "coord Z, vector"
vector 15 ParcelDeliveryNetwork.gcs.wlan[0].radio radioMode:vector ETV
attr interpolationmode sample-hold
attr source radioModeChanged
attr title "Radio mode, vector"
vector 16 ParcelDeliveryNetwork.gcs.wlan[0].radio radioChannel:vector ETV
attr interpolationmode sample-hold
attr source radioChannelChanged
attr title "Radio channel, vector"
vector 17 ParcelDeliveryNetwork.gcs.wlan[0].radio receptionState:vector ETV
attr interpolationmode sample-hold
attr source receptionStateChanged
attr title "Radio reception state, vector"
vector 18 ParcelDeliveryNetwork.gcs.wlan[0].mac.dcf.recoveryProcedure contentionWindowChanged:vector ETV
attr interpolationmode sample-hold
attr title "contention window, vector"
0	0	0	329.28810138255
0	1	0.1	329.39983997521
0	6	0.2	329.51157856786
0	11	0.3	329.62331716052
0	16	0.4	329.73505575317
0	21	0.5	329.84679434583
0	26	0.6	329.95853293848
0	31	0.7	330.07027153114
0	36	0.8	330.18201012379
0	41	0.9	330.29374871645
0	46	1	330.4054873091
0	51	1.1	330.51722590175
0	56	1.127851431333	330.54834669916
0	57	1.2	330.62896449441
0	61	1.227851431333	330.66008529181
0	62	1.3	330.74070308706
0	66	1.327851431333	330.77182388447
0	67	1.4	330.85244167972
0	71	1.427851431333	330.88356247712
0	72	1.490707044307	330.95379645447
0	73	1.5	330.96418027237
0	76	1.527851431333	330.99530106978
0	77	1.590707044307	331.06553504712
0	78	1.6	331.07591886503
0	81	1.627851431333	331.10703966243
0	82	1.690707044307	331.17727363977
0	83	1.7	331.18765745768
0	86	1.727851431333	331.21877825509
0	87	1.790707044307	331.28901223243
0	88	1.8	331.29939605034
0	91	1.827851431333	331.33051684774
0	92	1.890707044307	331.40075082508
0	93	1.9	331.41113464299
0	96	1.927851431333	331.4422554404
0	97	1.990707044307	331.51248941774
0	98	2	331.52287323565
0	101	2.027851431333	331.55399403305
0	102	2.090707044307	331.62422801039
0	103	2.1	331.6346118283
0	106	2.127851431333	331.66573262571
0	107	2.188253834944	331.73322542143
0	108	2.190707044307	331.73596660305
0	109	2.2	331.74635042095
0	111	2.227851431333	331.77747121836
0	112	2.288253834944	331.84496401409
0	113	2.290707044307	331.8477051957
0	114	2.2927625445	331.85000198269
0	115	2.3	331.85808901361
0	117	2.388253834944	331.95670260674
0	118	2.390707044307	331.95944378836
0	119	2.3927625445	331.96174057534
0	120	2.4	331.96982760626
0	122	2.445847315522	332.0210567514
0	123	2.488253834944	331.8709489348
0	124	2.490707044307	331.86226522517
0	125	2.4927625445	331.85498930038
0	126	2.5	331.82937063001
0	127	2.545847315522	331.66708330901
0	128	2.588253834944	331.51697549241
0	129	2.590707044307	331.50829178278
0	130	2.5927625445	331.50101585799
0	131	2.6	331.47539718762
0	132	2.645847315522	331.31310986662
0	133	2.688253834944	331.16300205002
0	134	2.690707044307	331.15431834039
0	135	2.6927625445	331.1470424156
0	136	2.7	331.12142374523
0	137	2.716883848591	331.06165940516
0	138	2.745847315522	330.95913642423
0	139	2.788253834944	330.80902860763
0	140	2.790707044307	330.800344898
0	141	2.7927625445	330.79306897321
0	142	2.816883848591	330.70768596277
0	143	2.845847315522	330.60516298184
0	144	2.888253834944	330.45505516524
0	145	2.890707044307	330.44637145561
0	146	2.8927625445	330.43909553082
0	147	2.916883848591	330.35371252038
0	148	2.945847315522	330.25118953945
0	149	2.988253834944	330.10108172285
0	150	2.990707044307	330.09239801322
0	151	2.9927625445	330.08512208843
0	152	3.016883848591	329.99973907799
0	153	3.045847315522	329.89721609706
0	154	3.088253834944	329.74710828046
0	155	3.090707044307	329.73842457083
0	156	3.0927625445	329.73114864604
0	157	3.116883848591	329.6457656356
0	158	3.145847315522	329.54324265467
0	159	3.188253834944	329.39313483807
0	160	3.190707044307	329.38445112844
0	161	3.1927625445	329.37717520365
0	162	3.216883848591	329.29179219321
0	163	3.245847315522	329.18926921228
0	164	3.288253834944	329.03916139568
0	165	3.290707044307	329.03047768605
0	166	3.2927625445	329.02320176126
0	167	3.316883848591	328.93781875082
0	168	3.345847315522	328.83529576989
0	169	3.388253834944	328.68518795329
0	170	3.390707044307	328.67650424366
0	171	3.3927625445	328.66922831887
0	172	3.416883848591	328.58384530843
0	173	3.445847315522	328.4813223275
0	174	3.488253834944	328.3312145109
0	175	3.490707044307	328.32253080127
0	176	3.4927625445	328.31525487648
0	177	3.516883848591	328.22987186604
0	178	3.539409705229	328.15013631587
0	179	3.545847315522	328.12734888511
0	180	3.588253834944	327.97724106851
0	181	3.5927625445	327.96128143409
0	182	3.616883848591	327.87589842365
0	183	3.639409705229	327.79616287348
0	184	3.645847315522	327.77337544272
0	185	3.688253834944	327.62326762612
0	186	3.6927625445	327.6073079917
0	187	3.716883848591	327.52192498126
0	188	3.739409705229	327.44218943109
0	189	3.745847315522	327.41940200033
0	190	3.788253834944	327.26929418373
0	191	3.7927625445	327.25333454931
0	192	3.816883848591	327.16795153887
0	193	3.839409705229	327.0882159887
0	194	3.845847315522	327.06542855794
0	195	3.888253834944	326.91532074134
0	196	3.8927625445	326.89936110692
0	197	3.916883848591	326.81397809648
0	198	3.939409705229	326.73424254631
0	199	3.945847315522	326.71145511555
0	200	3.988253834944	326.56134729895
0	201	3.9927625445	326.54538766453
0	202	4.016883848591	326.46000465409
0	203	4.029663438076	326.41476830127
0	204	4.039409705229	326.38026910392
0	205	4.045847315522	326.35748167316
0	206	4.088253834944	326.20737385656
0	207	4.098676292788	326.17048112375
0	208	4.116883848591	325.92832314672
0	209	4.129663438076	325.75835637191
0	210	4.139409705229	325.6287323651
0	211	4.188253834944	324.97911218711
0	212	4.198676292788	324.84049493752
0	213	4.216883848591	324.59833696049
0	214	4.229663438076	324.42837018568
0	215	4.239409705229	324.29874617887
0	216	4.288253834944	323.64912600087
0	217	4.298676292788	323.51050875128
0	218	4.316883848591	323.26835077425
0	219	4.329663438076	323.09838399944
0	220	4.339409705229	322.96875999263
0	221	4.388253834944	322.31913981464
0	222	4.398676292788	322.18052256504
0	223	4.416883848591	321.93836458801
0	224	4.429663438076	321.76839781321
0	225	4.439409705229	321.6387738064
0	226	4.455894000214	321.4195349602
0	227	4.498676292788	320.85053637881
0	228	4.516883848591	320.60837840178
0	229	4.529663438076	320.43841162697
0	230	4.539409705229	320.30878762016
0	231	4.555894000214	320.08954877396
0	232	4.598676292788	319.52055019257
0	233	4.616883848591	319.27839221554
0	234	4.629663438076	319.10842544073
0	235	4.639409705229	318.97880143393
0	236	4.655894000214	318.75956258773
0	237	4.698676292788	318.19056400634
0	238	4.716883848591	317.94840602931
0	239	4.729663438076	317.7784392545
0	240	4.739409705229	317.64881524769
0	241	4.755894000214	317.42957640149
0	242	4.798676292788	316.8605778201
0	243	4.816883848591	316.61841984307
0	244	4.829663438076	316.44845306826
0	245	4.839409705229	316.31882906145
0	246	4.855894000214	316.09959021525
0	247	4.898676292788	315.53059163387
0	248	4.916883848591	315.28843365683
0	249	4.929357361238	315.12253766169
0	250	4.929663438076	315.11846688203
0	251	4.939409705229	314.98884287522
0	252	4.955894000214	314.76960402902
0	253	4.998676292788	314.20060544763
0	254	5.029357361238	313.79255147545
0	255	5.029663438076	313.78848069579
0	256	5.039409705229	313.65885668898
0	257	5.055894000214	313.43961784278
0	258	5.098676292788	312.87061926139
0	259	5.129357361238	312.46256528922
0	260	5.129663438076	312.45849450955
0	261	5.139409705229	312.32887050275
0	262	5.155894000214	312.10963165655
0	263	5.198676292788	311.54063307516
0	264	5.229357361238	311.13257910298
0	265	5.229663438076	311.12850832332
0	266	5.239409705229	310.99888431651
0	267	5.255894000214	310.77964547031
0	268	5.298676292788	310.21064688892
0	269	5.329357361238	309.80259291675
0	270	5.329663438076	309.79852213708
0	271	5.339409705229	309.66889813027
0	272	5.355894000214	309.44965928407
0	273	5.398676292788	308.88066070269
0	274	5.429357361238	308.47260673051
0	275	5.429663438076	308.46853595085
0	276	5.439409705229	308.33891194404
0	277	5.455894000214	308.11967309784
0	278	5.498676292788	307.55067451645
0	279	5.529357361238	307.14262054427
0	280	5.529663438076	307.13854976461
0	281	5.539409705229	307.0089257578
0	282	5.555894000214	306.7896869116
0	283	5.581413358928	306.45028296589
0	284	5.598676292788	306.22068833021
0	285	5.614827169023	306.00588390733
0	286	5.629357361238	305.81263435804
0	287	5.655894000214	305.45970072537
0	288	5.681413358928	305.12029677965
0	289	5.698676292788	304.89070214398
0	290	5.714827169023	304.6758977211
0	291	5.729357361238	304.4826481718
0	292	5.755894000214	304.12971453913
0	293	5.781413358928	303.79031059342
0	294	5.798676292788	303.56071595774
0	295	5.814827169023	303.34591153486
0	296	5.829357361238	303.15266198557
0	297	5.855894000214	302.79972835289
0	298	5.881413358928	302.46032440718
0	299	5.898676292788	302.23072977151
0	300	5.914827169023	302.01592534862
0	301	5.929357361238	301.82267579933
0	302	5.955894000214	301.46974216666
0	303	5.981413358928	301.13033822095
0	304	5.998676292788	300.90074358527
0	305	6.014827169023	300.68593916239
0	306	6.029357361238	300.4926896131
0	307	6.055894000214	300.13975598042
0	308	6.081413358928	299.80035203471
0	309	6.098676292788	299.57075739903
0	310	6.114827169023	299.35595297615
0	311	6.129357361238	299.16270342686
0	312	6.155894000214	298.80976979419
0	313	6.181413358928	298.47036584847
0	314	6.198676292788	298.2407712128
0	315	6.214827169023	298.02596678992
0	316	6.229357361238	297.83271724062
0	317	6.255894000214	297.47978360795
0	318	6.281413358928	297.14037966224
0	319	6.298676292788	296.91078502656
0	320	6.314827169023	296.69598060368
0	321	6.329357361238	296.50273105439
0	322	6.355894000214	296.14979742172
0	323	6.381413358928	295.810393476
0	324	6.398676292788	295.58079884033
1	0	0	237.13784655556
1	1	0.1	234.782762036
1	6	0.2	232.42767751643
1	11	0.3	230.07259299686
1	16	0.4	227.7175084773
1	21	0.5	225.36242395773
1	26	0.6	223.00733943817
1	31	0.7	220.6522549186
1	36	0.8	218.29717039904
1	41	0.9	215.94208587947
1	46	1	213.5870013599
1	51	1.1	211.23191684034
1	56	1.127851431333	210.57599209254
1	57	1.2	208.87683232077
1	61	1.227851431333	208.22090757297
1	62	1.3	206.52174780121
1	66	1.327851431333	205.86582305341
1	67	1.4	204.16666328164
1	71	1.427851431333	203.51073853384
1	72	1.490707044307	202.03043572301
1	73	1.5	201.81157876208
1	76	1.527851431333	201.15565401427
1	77	1.590707044307	199.67535120345
1	78	1.6	199.45649424251
1	81	1.627851431333	198.80056949471
1	82	1.690707044307	197.32026668388
1	83	1.7	197.10140972294
1	86	1.727851431333	196.44548497514
1	87	1.790707044307	194.96518216431
1	88	1.8	194.74632520338
1	91	1.827851431333	194.09040045558
1	92	1.890707044307	192.61009764475
1	93	1.9	192.39124068381
1	96	1.927851431333	191.73531593601
1	97	1.990707044307	190.25501312518
1	98	2	190.03615616425
1	101	2.027851431333	189.38023141645
1	102	2.090707044307	187.89992860562
1	103	2.1	187.68107164468
1	106	2.127851431333	187.02514689688
1	107	2.188253834944	185.60261923999
1	108	2.190707044307	185.54484408605
1	109	2.2	185.32598712512
1	111	2.227851431333	184.67006237731
1	112	2.288253834944	183.24753472043
1	113	2.290707044307	183.18975956649
1	114	2.2927625445	183.14135079964
1	115	2.3	182.97090260555
1	117	2.388253834944	180.89245020086
1	118	2.390707044307	180.83467504692
1	119	2.3927625445	180.78626628008
1	120	2.4	180.61581808598
1	122	2.445847315522	179.53607505549
1	123	2.488253834944	179.20174664981
1	124	2.490707044307	179.18240581292
1	125	2.4927625445	179.16620047205
1	126	2.5	179.10914115685
1	127	2.545847315522	178.74768588742
1	128	2.588253834944	178.41335748174
1	129	2.590707044307	178.39401664486
1	130	2.5927625445	178.37781130398
1	131	2.6	178.32075198878
1	132	2.645847315522	177.95929671935
1	133	2.688253834944	177.62496831368
1	134	2.690707044307	177.60562747679
1	135	2.6927625445	177.58942213592
1	136	2.7	177.53236282071
1	137	2.716883848591	177.39925238727
1	138	2.745847315522	177.17090755129
1	139	2.788253834944	176.83657914561
1	140	2.790707044307	176.81723830872
1	141	2.7927625445	176.80103296785
1	142	2.816883848591	176.6108632192
1	143	2.845847315522	176.38251838322
1	144	2.888253834944	176.04818997754
1	145	2.890707044307	176.02884914065
1	146	2.8927625445	176.01264379978
1	147	2.916883848591	175.82247405113
1	148	2.945847315522	175.59412921515
1	149	2.988253834944	175.25980080947
1	150	2.990707044307	175.24045997258
1	151	2.9927625445	175.22425463171
1	152	3.016883848591	175.03408488306
1	153	3.045847315522	174.80574004708
1	154	3.088253834944	174.4714116414
1	155	3.090707044307	174.45207080452
1	156	3.0927625445	174.43586546364
1	157	3.116883848591	174.24569571499
1	158	3.145847315522	174.01735087901
1	159	3.188253834944	173.68302247334
1	160	3.190707044307	173.66368163645
1	161	3.1927625445	173.64747629558
1	162	3.216883848591	173.45730654693
1	163	3.245847315522	173.22896171095
1	164	3.288253834944	172.89463330527
1	165	3.290707044307	172.87529246838
1	166	3.2927625445	172.85908712751
1	167	3.316883848591	172.66891737886
1	168	3.345847315522	172.44057254288
1	169	3.388253834944	172.1062441372
1	170	3.390707044307	172.08690330031
1	171	3.3927625445	172.07069795944
1	172	3.416883848591	171.88052821079
1	173	3.445847315522	171.65218337481
1	174	3.488253834944	171.31785496913
1	175	3.490707044307	171.29851413224
1	176	3.4927625445	171.28230879137
1	177	3.516883848591	171.09213904272
1	178	3.539409705229	170.91454762897
1	179	3.545847315522	170.86379420674
1	180	3.588253834944	170.52946580106
1	181	3.5927625445	170.49391962331
1	182	3.616883848591	170.30374987466
1	183	3.639409705229	170.12615846091
1	184	3.645847315522	170.07540503867
1	185	3.688253834944	169.741076633
1	186	3.6927625445	169.70553045524
1	187	3.716883848591	169.51536070659
1	188	3.739409705229	169.33776929284
1	189	3.745847315522	169.28701587061
1	190	3.788253834944	168.95268746493
1	191	3.7927625445	168.91714128717
1	192	3.816883848591	168.72697153852
1	193	3.839409705229	168.54938012477
1	194	3.845847315522	168.49862670254
1	195	3.888253834944	168.16429829686
1	196	3.8927625445	168.1287521191
1	197	3.916883848591	167.93858237045
1	198	3.939409705229	167.7609909567
1	199	3.945847315522	167.71023753447
1	200	3.988253834944	167.37590912879
1	201	3.9927625445	167.34036295103
1	202	4.016883848591	167.15019320238
1	203	4.029663438076	167.04944030316
1	204	4.039409705229	166.97260178864
1	205	4.045847315522	166.9218483664
1	206	4.088253834944	166.58751996073
1	207	4.098676292788	166.50535043204
1	208	4.116883848591	166.11721779016
1	209	4.129663438076	165.84479375464
1	210	4.139409705229	165.63703141359
1	211	4.188253834944	164.59581526621
1	212	4.198676292788	164.37363848743
1	213	4.216883848591	163.98550584555
1	214	4.229663438076	163.71308181003
1	215	4.239409705229	163.50531946898
1	216	4.288253834944	162.4641033216
1	217	4.298676292788	162.24192654282
1	218	4.316883848591	161.85379390095
1	219	4.329663438076	161.58136986542
1	220	4.339409705229	161.37360752437
1	221	4.388253834944	160.33239137699
1	222	4.398676292788	160.11021459821
1	223	4.416883848591	159.72208195634
1	224	4.429663438076	159.44965792081
1	225	4.439409705229	159.24189557976
1	226	4.455894000214	158.89049789458
1	227	4.498676292788	157.9785026536
1	228	4.516883848591	157.59037001173
1	229	4.529663438076	157.3179459762
1	230	4.539409705229	157.11018363515
1	231	4.555894000214	156.75878594997
1	232	4.598676292788	155.84679070899
1	233	4.616883848591	155.45865806712
1	234	4.629663438076	155.1862340316
1	235	4.639409705229	154.97847169054
1	236	4.655894000214	154.62707400536
1	237	4.698676292788	153.71507876439
1	238	4.716883848591	153.32694612251
1	239	4.729663438076	153.05452208699
1	240	4.739409705229	152.84675974593
1	241	4.755894000214	152.49536206075
1	242	4.798676292788	151.58336681978
1	243	4.816883848591	151.1952341779
1	244	4.829663438076	150.92281014238
1	245	4.839409705229	150.71504780133
1	246	4.855894000214	150.36365011615
1	247	4.898676292788	149.45165487517
1	248	4.916883848591	149.06352223329
1	249	4.929357361238	148.79762287429
1	250	4.929663438076	148.79109819777
1	251	4.939409705229	148.58333585672
1	252	4.955894000214	148.23193817154
1	253	4.998676292788	147.31994293056
1	254	5.029357361238	146.66591092968
1	255	5.029663438076	146.65938625316
1	256	5.039409705229	146.45162391211
1	257	5.055894000214	146.10022622693
1	258	5.098676292788	145.18823098595
1	259	5.129357361238	144.53419898507
1	260	5.129663438076	144.52767430855
1	261	5.139409705229	144.3199119675
1	262	5.155894000214	143.96851428232
1	263	5.198676292788	143.05651904134
1	264	5.229357361238	142.40248704046
1	265	5.229663438076	142.39596236394
1	266	5.239409705229	142.18820002289
1	267	5.255894000214	141.83680233771
1	268	5.298676292788	140.92480709673
1	269	5.329357361238	140.27077509585
1	270	5.329663438076	140.26425041934
1	271	5.339409705229	140.05648807828
1	272	5.355894000214	139.7050903931
1	273	5.398676292788	138.79309515213
1	274	5.429357361238	138.13906315124
1	275	5.429663438076	138.13253847473
1	276	5.439409705229	137.92477613367
1	277	5.455894000214	137.57337844849
1	278	5.498676292788	136.66138320752
1	279	5.529357361238	136.00735120663
1	280	5.529663438076	136.00082653012
1	281	5.539409705229	135.79306418906
1	282	5.555894000214	135.44166650389
1	283	5.581413358928	134.89766728599
1	284	5.598676292788	134.52967126291
1	285	5.614827169023	134.18538110505
1	286	5.629357361238	133.87563926203
1	287	5.655894000214	133.30995455928
1	288	5.681413358928	132.76595534138
1	289	5.698676292788	132.3979593183
1	290	5.714827169023	132.05366916044
1	291	5.729357361238	131.74392731742
1	292	5.755894000214	131.17824261467
1	293	5.781413358928	130.63424339677
1	294	5.798676292788	130.26624737369
1	295	5.814827169023	129.92195721583
1	296	5.829357361238	129.61221537281
1	297	5.855894000214	129.04653067006
1	298	5.881413358928	128.50253145217
1	299	5.898676292788	128.13453542908
1	300	5.914827169023	127.79024527122
1	301	5.929357361238	127.4805034282
1	302	5.955894000214	126.91481872545
1	303	5.981413358928	126.37081950756
1	304	5.998676292788	126.00282348447
1	305	6.014827169023	125.65853332661
1	306	6.029357361238	125.34879148359
1	307	6.055894000214	124.78310678084
1	308	6.081413358928	124.23910756295
1	309	6.098676292788	123.87111153986
1	310	6.114827169023	123.526821382
1	311	6.129357361238	123.21707953898
1	312	6.155894000214	122.65139483623
1	313	6.181413358928	122.10739561834
1	314	6.198676292788	121.73939959526
1	315	6.214827169023	121.3951094374
1	316	6.229357361238	121.08536759437
1	317	6.255894000214	120.51968289163
1	318	6.281413358928	119.97568367373
1	319	6.298676292788	119.60768765065
1	320	6.314827169023	119.26339749279
1	321	6.329357361238	118.95365564977
1	322	6.355894000214	118.38797094702
1	323	6.381413358928	117.84397172912
1	324	6.398676292788	117.47597570604
2	0	0	0
2	1	0.1	0
2	6	0.2	0
2	11	0.3	0
2	16	0.4	0
2	21	0.5	0
2	26	0.6	0
2	31	0.7	0
2	36	0.8	0
2	41	0.9	0
2	46	1	0
2	51	1.1	0
2	56	1.127851431333	0
2	57	1.2	0
2	61	1.227851431333	0
2	62	1.3	0
2	66	1.327851431333	0
2	67	1.4	0
2	71	1.427851431333	0
2	72	1.490707044307	0
2	73	1.5	0
2	76	1.527851431333	0
2	77	1.590707044307	0
2	78	1.6	0
2	81	1.627851431333	0
2	82	1.690707044307	0
2	83	1.7	0
2	86	1.727851431333	0
2	87	1.790707044307	0
2	88	1.8	0
2	91	1.827851431333	0
2	92	1.890707044307	0
2	93	1.9	0
2	96	1.927851431333	0
2	97	1.990707044307	0
2	98	2	0
2	101	2.027851431333	0
2	102	2.090707044307	0
2	103	2.1	0
2	106	2.127851431333	0
2	107	2.188253834944	0
2	108	2.190707044307	0
2	109	2.2	0
2	111	2.227851431333	0
2	112	2.288253834944	0
2	113	2.290707044307	0
2	114	2.2927625445	0
2	115	2.3	0
2	117	2.388253834944	0
2	118	2.390707044307	0
2	119	2.3927625445	0
2	120	2.4	0
2	122	2.445847315522	0
2	123	2.488253834944	0
2	124	2.490707044307	0
2	125	2.4927625445	0
2	126	2.5	0
2	127	2.545847315522	0
2	128	2.588253834944	0
2	129	2.590707044307	0
2	130	2.5927625445	0
2	131	2.6	0
2	132	2.645847315522	0
2	133	2.688253834944	0
2	134	2.690707044307	0
2	135	2.6927625445	0
2	136	2.7	0
2	137	2.716883848591	0
2	138	2.745847315522	0
2	139	2.788253834944	0
2	140	2.790707044307	0
2	141	2.7927625445	0
2	142	2.816883848591	0
2	143	2.845847315522	0
2	144	2.888253834944	0
2	145	2.890707044307	0
2	146	2.8927625445	0
2	147	2.916883848591	0
2	148	2.945847315522	0
2	149	2.988253834944	0
2	150	2.990707044307	0
2	151	2.9927625445	0
2	152	3.016883848591	0
2	153	3.045847315522	0
2	154	3.088253834944	0
2	155	3.090707044307	0
2	156	3.0927625445	0
2	157	3.116883848591	0
2	158	3.145847315522	0
2	159	3.188253834944	0
2	160	3.190707044307	0
2	161	3.1927625445	0
2	162	3.216883848591	0
2	163	3.245847315522	0
2	164	3.288253834944	0
2	165	3.290707044307	0
2	166	3.2927625445	0
2	167	3.316883848591	0
2	168	3.345847315522	0
2	169	3.388253834944	0
2	170	3.390707044307	0
2	171	3.3927625445	0
2	172	3.416883848591	0
2	173	3.445847315522	0
2	174	3.488253834944	0
2	175	3.490707044307	0
2	176	3.4927625445	0
2	177	3.516883848591	0
2	178	3.539409705229	0
2	179	3.545847315522	0
2	180	3.588253834944	0
2	181	3.5927625445	0
2	182	3.616883848591	0
2	183	3.639409705229	0
2	184	3.645847315522	0
2	185	3.688253834944	0
2	186	3.6927625445	0
2	187	3.716883848591	0
2	188	3.739409705229	0
2	189	3.745847315522	0
2	190	3.788253834944	0
2	191	3.7927625445	0
2	192	3.816883848591	0
2	193	3.839409705229	0
2	194	3.845847315522	0
2	195	3.888253834944	0
2	196	3.8927625445	0
2	197	3.916883848591	0
2	198	3.939409705229	0
2	199	3.945847315522	0
2	200	3.988253834944	0
2	201	3.9927625445	0
2	202	4.016883848591	0
2	203	4.029663438076	0
2	204	4.039409705229	0
2	205	4.045847315522	0
2	206	4.088253834944	0
2	207	4.098676292788	0
2	208	4.116883848591	0
2	209	4.129663438076	0
2	210	4.139409705229	0
2	211	4.188253834944	0
2	212	4.198676292788	0
2	213	4.216883848591	0
2	214	4.229663438076	0
2	215	4.239409705229	0
2	216	4.288253834944	0
2	217	4.298676292788	0
2	218	4.316883848591	0
2	219	4.329663438076	0
2	220	4.339409705229	0
2	221	4.388253834944	0
2	222	4.398676292788	0
2	223	4.416883848591	0
2	224	4.429663438076	0
2	225	4.439409705229	0
2	226	4.455894000214	0
2	227	4.498676292788	0
2	228	4.516883848591	0
2	229	4.529663438076	0
2	230	4.539409705229	0
2	231	4.555894000214	0
2	232	4.598676292788	0
2	233	4.616883848591	0
2	234	4.629663438076	0
2	235	4.639409705229	0
2	236	4.655894000214	0
2	237	4.698676292788	0
2	238	4.716883848591	0
2	239	4.729663438076	0
2	240	4.739409705229	0
2	241	4.755894000214	0
2	242	4.798676292788	0
2	243	4.816883848591	0
2	244	4.829663438076	0
2	245	4.839409705229	0
2	246	4.855894000214	0
2	247	4.898676292788	0
2	248	4.916883848591	0
2	249	4.929357361238	0
2	250	4.929663438076	0
2	251	4.939409705229	0
2	252	4.955894000214	0
2	253	4.998676292788	0
2	254	5.029357361238	0
2	255	5.029663438076	0
2	256	5.039409705229	0
2	257	5.055894000214	0
2	258	5.098676292788	0
2	259	5.129357361238	0
2	260	5.129663438076	0
2	261	5.139409705229	0
2	262	5.155894000214	0
2	263	5.198676292788	0
2	264	5.229357361238	0
2	265	5.229663438076	0
2	266	5.239409705229	0
2	267	5.255894000214	0
2	268	5.298676292788	0
2	269	5.329357361238	0
2	270	5.329663438076	0
2	271	5.339409705229	0
2	272	5.355894000214	0
2	273	5.398676292788	0
2	274	5.429357361238	0
2	275	5.429663438076	0
2	276	5.439409705229	0
2	277	5.455894000214	0
2	278	5.498676292788	0
2	279	5.529357361238	0
2	280	5.529663438076	0
2	281	5.539409705229	0
2	282	5.555894000214	0
2	283	5.581413358928	0
2	284	5.598676292788	0
2	285	5.614827169023	0
2	286	5.629357361238	0
2	287	5.655894000214	0
2	288	5.681413358928	0
2	289	5.698676292788	0
2	290	5.714827169023	0
2	291	5.729357361238	0
2	292	5.755894000214	0
2	293	5.781413358928	0
2	294	5.798676292788	0
2	295	5.814827169023	0
2	296	5.829357361238	0
2	297	5.855894000214	0
2	298	5.881413358928	0
2	299	5.898676292788	0
2	300	5.914827169023	0
2	301	5.929357361238	0
2	302	5.955894000214	0
2	303	5.981413358928	0
2	304	5.998676292788	0
2	305	6.014827169023	0
2	306	6.029357361238	0
2	307	6.055894000214	0
2	308	6.081413358928	0
2	309	6.098676292788	0
2	310	6.114827169023	0
2	311	6.129357361238	0
2	312	6.155894000214	0
2	313	6.181413358928	0
2	314	6.198676292788	0
2	315	6.214827169023	0
2	316	6.229357361238	0
2	317	6.255894000214	0
2	318	6.281413358928	0
2	319	6.298676292788	0
2	320	6.314827169023	0
2	321	6.329357361238	0
2	322	6.355894000214	0
2	323	6.381413358928	0
2	324	6.398676292788	0
3	0	0	361.65802222677
3	1	0.1	363.1357258477
3	6	0.2	364.61342946863
3	11	0.3	366.09113308957
3	16	0.4	367.5688367105
3	21	0.5	369.04654033143
3	26	0.6	370.52424395237
3	31	0.7	372.0019475733
3	36	0.8	373.47965119423
3	41	0.9	374.95735481517
3	46	1	376.4350584361
3	51	1.1	377.91276205703
3	56	1.127851431333	378.32432366632
3	57	1.2	379.39046567797
3	61	1.227851431333	379.80202728726
3	62	1.3	380.8681692989
3	66	1.327851431333	381.27973090819
3	67	1.4	382.34587291983
3	71	1.427851431333	382.75743452912
3	72	1.490707044307	383.686254198
3	73	1.5	383.82357654077
3	76	1.527851431333	384.23513815006
3	77	1.590707044307	385.16395781893
3	78	1.6	385.3012801617
3	81	1.627851431333	385.71284177099
3	82	1.690707044307	386.64166143987
3	83	1.7	386.77898378263
3	86	1.727851431333	387.19054539192
3	87	1.790707044307	388.1193650608
3	88	1.8	388.25668740357
3	91	1.827851431333	388.66824901286
3	92	1.890707044307	389.59706868173
3	93	1.9	389.7343910245
3	96	1.927851431333	390.14595263379
3	97	1.990707044307	391.07477230267
3	98	2	391.21209464543
3	101	2.027851431333	391.62365625472
3	102	2.090707044307	392.5524759236
3	103	2.1	392.68979826637
3	106	2.127851431333	393.10135987566
3	107	2.188253834944	393.99392838095
3	108	2.190707044307	394.03017954453
3	109	2.2	394.1675018873
3	111	2.227851431333	394.57906349659
3	112	2.288253834944	395.47163200188
3	113	2.290707044307	395.50788316547
3	114	2.2927625445	395.53825736625
3	115	2.3	395.64520550823
3	117	2.388253834944	396.94933562281
3	118	2.390707044307	396.9855867864
3	119	2.3927625445	397.01596098718
3	120	2.4	397.12290912917
3	122	2.445847315522	397.80039657074
3	123	2.488253834944	398.42703924375
3	124	2.490707044307	398.46329040733
3	125	2.4927625445	398.49366460811
3	126	2.5	398.6006127501
3	127	2.545847315522	399.27810019167
3	128	2.588253834944	399.90474286468
3	129	2.590707044307	399.94099402827
3	130	2.5927625445	399.97136822905
3	131	2.6	400.07831637103
3	132	2.645847315522	400.7558038126
3	133	2.688253834944	401.38244648561
3	134	2.690707044307	401.4186976492
3	135	2.6927625445	401.44907184998
3	136	2.7	401.55601999197
3	137	2.716883848591	401.80551323395
3	138	2.745847315522	401.95295432632
3	139	2.788253834944	402.16882846742
3	140	2.790707044307	402.18131674685
3	141	2.7927625445	402.19178045254
3	142	2.816883848591	402.31457208633
3	143	2.845847315522	402.46201317869
3	144	2.888253834944	402.67788731979
3	145	2.890707044307	402.69037559922
3	146	2.8927625445	402.70083930492
3	147	2.916883848591	402.8236309387
3	148	2.945847315522	402.97107203107
3	149	2.988253834944	403.18694617217
3	150	2.990707044307	403.1994344516
3	151	2.9927625445	403.20989815729
3	152	3.016883848591	403.33268979108
3	153	3.045847315522	403.48013088344
3	154	3.088253834944	403.69600502455
3	155	3.090707044307	403.70849330398
3	156	3.0927625445	403.71895700967
3	157	3.116883848591	403.84174864345
3	158	3.145847315522	403.98918973582
3	159	3.188253834944	404.20506387692
3	160	3.190707044307	404.21755215635
3	161	3.1927625445	404.22801586205
3	162	3.216883848591	404.35080749583
3	163	3.245847315522	404.4982485882
3	164	3.288253834944	404.7141227293
3	165	3.290707044307	404.72661100873
3	166	3.2927625445	404.73707471442
3	167	3.316883848591	404.8598663482
3	168	3.345847315522	405.00730744057
3	169	3.388253834944	405.22318158167
3	170	3.390707044307	405.2356698611
3	171	3.3927625445	405.2461335668
3	172	3.416883848591	405.36892520058
3	173	3.445847315522	405.51636629295
3	174	3.488253834944	405.73224043405
3	175	3.490707044307	405.74472871348
3	176	3.4927625445	405.75519241917
3	177	3.516883848591	405.87798405296
3	178	3.539409705229	405.99265392025
3	179	3.545847315522	406.02542514532
3	180	3.588253834944	406.24129928643
3	181	3.5927625445	406.26425127155
3	182	3.616883848591	406.38704290533
3	183	3.639409705229	406.50171277262
3	184	3.645847315522	406.5344839977
3	185	3.688253834944	406.7503581388
3	186	3.6927625445	406.77331012392
3	187	3.716883848591	406.89610175771
3	188	3.739409705229	407.010771625
3	189	3.745847315522	407.04354285008
3	190	3.788253834944	407.25941699118
3	191	3.7927625445	407.2823689763
3	192	3.816883848591	407.40516061008
3	193	3.839409705229	407.51983047737
3	194	3.845847315522	407.55260170245
3	195	3.888253834944	407.76847584355
3	196	3.8927625445	407.79142782868
3	197	3.916883848591	407.91421946246
3	198	3.939409705229	408.02888932975
3	199	3.945847315522	408.06166055483
3	200	3.988253834944	408.27753469593
3	201	3.9927625445	408.30048668105
3	202	4.016883848591	408.42327831484
3	203	4.029663438076	408.48833394641
3	204	4.039409705229	408.53794818213
3	205	4.045847315522	408.5707194072
3	206	4.088253834944	408.78659354831
3	207	4.098676292788	408.8396499926
3	208	4.116883848591	408.93233716721
3	209	4.129663438076	408.99739279878
3	210	4.139409705229	409.0470070345
3	211	4.188253834944	409.29565240068
3	212	4.198676292788	409.34870884497
3	213	4.216883848591	409.44139601959
3	214	4.229663438076	409.50645165116
3	215	4.239409705229	409.55606588688
3	216	4.288253834944	409.80471125306
3	217	4.298676292788	409.85776769735
3	218	4.316883848591	409.95045487196
3	219	4.329663438076	410.01551050354
3	220	4.339409705229	410.06512473925
3	221	4.388253834944	410.31377010543
3	222	4.398676292788	410.36682654972
3	223	4.416883848591	410.45951372434
3	224	4.429663438076	410.52456935591
3	225	4.439409705229	410.57418359163
3	226	4.455894000214	410.6580983545
3	227	4.498676292788	410.8758854021
3	228	4.516883848591	410.96857257672
3	229	4.529663438076	411.03362820829
3	230	4.539409705229	411.08324244401
3	231	4.555894000214	411.16715720688
3	232	4.598676292788	411.38494425448
3	233	4.616883848591	411.47763142909
3	234	4.629663438076	411.54268706066
3	235	4.639409705229	411.59230129638
3	236	4.655894000214	411.67621605925
3	237	4.698676292788	411.89400310685
3	238	4.716883848591	411.98669028147
3	239	4.729663438076	412.05174591304
3	240	4.739409705229	412.10136014876
3	241	4.755894000214	412.18527491163
3	242	4.798676292788	412.40306195923
3	243	4.816883848591	412.49574913384
3	244	4.829663438076	412.56080476541
3	245	4.839409705229	412.61041900113
3	246	4.855894000214	412.69433376401
3	247	4.898676292788	412.9121208116
3	248	4.916883848591	413.00480798622
3	249	4.929357361238	413.06830550655
3	250	4.929663438076	413.07107400664
3	251	4.939409705229	413.15923011031
3	252	4.955894000214	413.30833244813
3	253	4.998676292788	413.69530318884
3	254	5.029357361238	413.97281697011
3	255	5.029663438076	413.9755854702
3	256	5.039409705229	414.06374157387
3	257	5.055894000214	414.21284391169
3	258	5.098676292788	414.5998146524
3	259	5.129357361238	414.87732843367
3	260	5.129663438076	414.88009693376
3	261	5.139409705229	414.96825303742
3	262	5.155894000214	415.11735537525
3	263	5.198676292788	415.50432611596
3	264	5.229357361238	415.78183989723
3	265	5.229663438076	415.78460839732
3	266	5.239409705229	415.87276450098
3	267	5.255894000214	416.02186683881
3	268	5.298676292788	416.40883757951
3	269	5.329357361238	416.68635136079
3	270	5.329663438076	416.68911986087
3	271	5.339409705229	416.77727596454
3	272	5.355894000214	416.92637830237
3	273	5.398676292788	417.31334904307
3	274	5.429357361238	417.59086282435
3	275	5.429663438076	417.59363132443
3	276	5.439409705229	417.6817874281
3	277	5.455894000214	417.83088976593
3	278	5.498676292788	418.21786050663
3	279	5.529357361238	418.4953742879
3	280	5.529663438076	418.49814278799
3	281	5.539409705229	418.58629889166
3	282	5.555894000214	418.73540122949
3	283	5.581413358928	418.96622675448
3	284	5.598676292788	419.12237197019
3	285	5.614827169023	419.2684584972
3	286	5.629357361238	419.39988575146
3	287	5.655894000214	419.63991269304
3	288	5.681413358928	419.87073821804
3	289	5.698676292788	420.02688343375
3	290	5.714827169023	420.17296996076
3	291	5.729357361238	420.30439721502
3	292	5.755894000214	420.5444241566
3	293	5.781413358928	420.7752496816
3	294	5.798676292788	420.93139489731
3	295	5.814827169023	421.07748142432
3	296	5.829357361238	421.20890867858
3	297	5.855894000214	421.44893562016
3	298	5.881413358928	421.67976114516
3	299	5.898676292788	421.83590636087
3	300	5.914827169023	421.98199288788
3	301	5.929357361238	422.11342014214
3	302	5.955894000214	422.35344708372
3	303	5.981413358928	422.58427260872
3	304	5.998676292788	422.74041782443
3	305	6.014827169023	422.88650435144
3	306	6.029357361238	423.0179316057
3	307	6.055894000214	423.25795854728
3	308	6.081413358928	423.48878407227
3	309	6.098676292788	423.64492928798
3	310	6.114827169023	423.791015815
3	311	6.129357361238	423.92244306926
3	312	6.155894000214	424.16247001084
3	313	6.181413358928	424.39329553583
3	314	6.198676292788	424.54944075154
3	315	6.214827169023	424.69552727855
3	316	6.229357361238	424.82695453282
3	317	6.255894000214	425.0669814744
3	318	6.281413358928	425.29780699939
3	319	6.298676292788	425.4539522151
3	320	6.314827169023	425.60003874211
3	321	6.329357361238	425.73146599637
3	322	6.355894000214	425.97149293796
3	323	6.381413358928	426.20231846295
4	0	0	343.1782479398
4	1	0.1	342.26385907161
4	6	0.2	341.34947020342
4	11	0.3	340.43508133523
4	16	0.4	339.52069246704
4	21	0.5	338.60630359885
4	26	0.6	337.69191473066
4	31	0.7	336.77752586247
4	36	0.8	335.86313699429
4	41	0.9	334.9487481261
4	46	1	334.03435925791
4	51	1.1	333.11997038972
4	56	1.127851431333	332.86530000198
4	57	1.2	332.20558152153
4	61	1.227851431333	331.95091113379
4	62	1.3	331.29119265334
4	66	1.327851431333	331.0365222656
4	67	1.4	330.37680378515
4	71	1.427851431333	330.12213339741
4	72	1.490707044307	329.54738866935
4	73	1.5	329.46241491697
4	76	1.527851431333	329.20774452923
4	77	1.590707044307	328.63299980116
4	78	1.6	328.54802604878
4	81	1.627851431333	328.29335566104
4	82	1.690707044307	327.71861093297
4	83	1.7	327.63363718059
4	86	1.727851431333	327.37896679285
4	87	1.790707044307	326.80422206478
4	88	1.8	326.7192483124
4	91	1.827851431333	326.46457792466
4	92	1.890707044307	325.88983319659
4	93	1.9	325.80485944421
4	96	1.927851431333	325.55018905647
4	97	1.990707044307	324.9754443284
4	98	2	324.89047057602
4	101	2.027851431333	324.63580018828
4	102	2.090707044307	324.06105546022
4	103	2.1	323.97608170783
4	106	2.127851431333	323.72141132009
4	107	2.188253834944	323.16909846536
4	108	2.190707044307	323.14666659203
4	109	2.2	323.06169283964
4	111	2.227851431333	322.8070224519
4	112	2.288253834944	322.25470959717
4	113	2.290707044307	322.23227772384
4	114	2.2927625445	322.21348245889
4	115	2.3	322.14730397146
4	117	2.388253834944	321.34032072898
4	118	2.390707044307	321.31788885565
4	119	2.3927625445	321.2990935907
4	120	2.4	321.23291510327
4	122	2.445847315522	320.81369235377
4	123	2.488253834944	320.42593186079
4	124	2.490707044307	320.40349998746
4	125	2.4927625445	320.38470472251
4	126	2.5	320.31852623508
4	127	2.545847315522	319.89930348558
4	128	2.588253834944	319.5115429926
4	129	2.590707044307	319.48911111927
4	130	2.5927625445	319.47031585432
4	131	2.6	319.40413736689
4	132	2.645847315522	318.98491461739
4	133	2.688253834944	318.59715412441
4	134	2.690707044307	318.57472225108
4	135	2.6927625445	318.55592698613
4	136	2.7	318.4897484987
4	137	2.716883848591	318.33536446666
4	138	2.745847315522	318.14210623327
4	139	2.788253834944	317.85914946405
4	140	2.790707044307	317.8427804669
4	141	2.7927625445	317.82906517733
4	142	2.816883848591	317.66811619194
4	143	2.845847315522	317.47485795854
4	144	2.888253834944	317.19190118933
4	145	2.890707044307	317.17553219218
4	146	2.8927625445	317.16181690261
4	147	2.916883848591	317.00086791722
4	148	2.945847315522	316.80760968382
4	149	2.988253834944	316.52465291461
4	150	2.990707044307	316.50828391746
4	151	2.9927625445	316.49456862789
4	152	3.016883848591	316.3336196425
4	153	3.045847315522	316.1403614091
4	154	3.088253834944	315.85740463989
4	155	3.090707044307	315.84103564274
4	156	3.0927625445	315.82732035316
4	157	3.116883848591	315.66637136778
4	158	3.145847315522	315.47311313438
4	159	3.188253834944	315.19015636517
4	160	3.190707044307	315.17378736802
4	161	3.1927625445	315.16007207844
4	162	3.216883848591	314.99912309305
4	163	3.245847315522	314.80586485966
4	164	3.288253834944	314.52290809044
4	165	3.290707044307	314.50653909329
4	166	3.2927625445	314.49282380372
4	167	3.316883848591	314.33187481833
4	168	3.345847315522	314.13861658494
4	169	3.388253834944	313.85565981572
4	170	3.390707044307	313.83929081857
4	171	3.3927625445	313.825575529
4	172	3.416883848591	313.66462654361
4	173	3.445847315522	313.47136831021
4	174	3.488253834944	313.188411541
4	175	3.490707044307	313.17204254385
4	176	3.4927625445	313.15832725428
4	177	3.516883848591	312.99737826889
4	178	3.539409705229	312.84707487911
4	179	3.545847315522	312.80412003549
4	180	3.588253834944	312.52116326628
4	181	3.5927625445	312.49107897955
4	182	3.616883848591	312.33012999417
4	183	3.639409705229	312.17982660438
4	184	3.645847315522	312.13687176077
4	185	3.688253834944	311.85391499156
4	186	3.6927625445	311.82383070483
4	187	3.716883848591	311.66288171944
4	188	3.739409705229	311.51257832966
4	189	3.745847315522	311.46962348605
4	190	3.788253834944	311.18666671684
4	191	3.7927625445	311.15658243011
4	192	3.816883848591	310.99563344472
4	193	3.839409705229	310.84533005494
4	194	3.845847315522	310.80237521133
4	195	3.888253834944	310.51941844211
4	196	3.8927625445	310.48933415539
4	197	3.916883848591	310.32838517
4	198	3.939409705229	310.17808178022
4	199	3.945847315522	310.1351269366
4	200	3.988253834944	309.85217016739
4	201	3.9927625445	309.82208588067
4	202	4.016883848591	309.66113689528
4	203	4.029663438076	309.57586530492
4	204	4.039409705229	309.5108335055
4	205	4.045847315522	309.46787866188
4	206	4.088253834944	309.18492189267
4	207	4.098676292788	309.11537822252
4	208	4.116883848591	308.99388862056
4	209	4.129663438076	308.9086170302
4	210	4.139409705229	308.84358523077
4	211	4.188253834944	308.51767361795
4	212	4.198676292788	308.4481299478
4	213	4.216883848591	308.32664034584
4	214	4.229663438076	308.24136875548
4	215	4.239409705229	308.17633695605
4	216	4.288253834944	307.85042534323
4	217	4.298676292788	307.78088167308
4	218	4.316883848591	307.65939207111
4	219	4.329663438076	307.57412048076
4	220	4.339409705229	307.50908868133
4	221	4.388253834944	307.1831770685
4	222	4.398676292788	307.11363339836
4	223	4.416883848591	306.99214379639
4	224	4.429663438076	306.90687220604
4	225	4.439409705229	306.84184040661
4	226	4.455894000214	306.73184923272
4	227	4.498676292788	306.44638512363
4	228	4.516883848591	306.32489552167
4	229	4.529663438076	306.23962393131
4	230	4.539409705229	306.17459213189
4	231	4.555894000214	306.064600958
4	232	4.598676292788	305.77913684891
4	233	4.616883848591	305.65764724695
4	234	4.629663438076	305.57237565659
4	235	4.639409705229	305.50734385716
4	236	4.655894000214	305.39735268328
4	237	4.698676292788	305.11188857419
4	238	4.716883848591	304.99039897223
4	239	4.729663438076	304.90512738187
4	240	4.739409705229	304.84009558244
4	241	4.755894000214	304.73010440856
4	242	4.798676292788	304.44464029947
4	243	4.816883848591	304.3231506975
4	244	4.829663438076	304.23787910715
4	245	4.839409705229	304.17284730772
4	246	4.855894000214	304.06285613383
4	247	4.898676292788	303.77739202475
4	248	4.916883848591	303.65590242278
4	249	4.929357361238	303.57267312485
4	250	4.929663438076	303.5689346542
4	251	4.939409705229	303.44989221416
4	252	4.955894000214	303.24855044232
4	253	4.998676292788	302.72600079138
4	254	5.029357361238	302.35125739536
4	255	5.029663438076	302.34751892471
4	256	5.039409705229	302.22847648467
4	257	5.055894000214	302.02713471283
4	258	5.098676292788	301.50458506189
4	259	5.129357361238	301.12984166587
4	260	5.129663438076	301.12610319522
4	261	5.139409705229	301.00706075518
4	262	5.155894000214	300.80571898334
4	263	5.198676292788	300.2831693324
4	264	5.229357361238	299.90842593638
4	265	5.229663438076	299.90468746573
4	266	5.239409705229	299.78564502569
4	267	5.255894000214	299.58430325385
4	268	5.298676292788	299.06175360291
4	269	5.329357361238	298.68701020689
4	270	5.329663438076	298.68327173624
4	271	5.339409705229	298.5642292962
4	272	5.355894000214	298.36288752435
4	273	5.398676292788	297.84033787342
4	274	5.429357361238	297.46559447739
4	275	5.429663438076	297.46185600675
4	276	5.439409705229	297.34281356671
4	277	5.455894000214	297.14147179486
4	278	5.498676292788	296.61892214393
4	279	5.529357361238	296.2441787479
4	280	5.529663438076	296.24044027726
4	281	5.539409705229	296.12139783722
4	282	5.555894000214	295.92005606537
4	283	5.581413358928	295.60835860398
4	284	5.598676292788	295.39750641444
4	285	5.614827169023	295.20023707165
4	286	5.629357361238	295.02276301841
4	287	5.655894000214	294.69864033588
4	288	5.681413358928	294.38694287448
4	289	5.698676292788	294.17609068495
4	290	5.714827169023	293.97882134216
4	291	5.729357361238	293.80134728892
4	292	5.755894000214	293.47722460639
4	293	5.781413358928	293.16552714499
4	294	5.798676292788	292.95467495546
4	295	5.814827169023	292.75740561267
4	296	5.829357361238	292.57993155943
4	297	5.855894000214	292.2558088769
4	298	5.881413358928	291.9441114155
4	299	5.898676292788	291.73325922597
4	300	5.914827169023	291.53598988318
4	301	5.929357361238	291.35851582994
4	302	5.955894000214	291.03439314741
4	303	5.981413358928	290.72269568601
4	304	5.998676292788	290.51184349647
4	305	6.014827169023	290.31457415369
4	306	6.029357361238	290.13710010045
4	307	6.055894000214	289.81297741792
4	308	6.081413358928	289.50127995652
4	309	6.098676292788	289.29042776698
4	310	6.114827169023	289.0931584242
4	311	6.129357361238	288.91568437096
4	312	6.155894000214	288.59156168843
4	313	6.181413358928	288.27986422703
4	314	6.198676292788	288.06901203749
4	315	6.214827169023	287.87174269471
4	316	6.229357361238	287.69426864147
4	317	6.255894000214	287.37014595894
4	318	6.281413358928	287.05844849754
4	319	6.298676292788	286.847596308
4	320	6.314827169023	286.65032696522
4	321	6.329357361238	286.47285291198
4	322	6.355894000214	286.14873022945
4	323	6.381413358928	285.83703276805
5	0	0	0
5	1	0.1	0
5	6	0.2	0
5	11	0.3	0
5	16	0.4	0
5	21	0.5	0
5	26	0.6	0
5	31	0.7	0
5	36	0.8	0
5	41	0.9	0
5	46	1	0
5	51	1.1	0
5	56	1.127851431333	0
5	57	1.2	0
5	61	1.227851431333	0
5	62	1.3	0
5	66	1.327851431333	0
5	67	1.4	0
5	71	1.427851431333	0
5	72	1.490707044307	0
5	73	1.5	0
5	76	1.527851431333	0
5	77	1.590707044307	0
5	78	1.6	0
5	81	1.627851431333	0
5	82	1.690707044307	0
5	83	1.7	0
5	86	1.727851431333	0
5	87	1.790707044307	0
5	88	1.8	0
5	91	1.827851431333	0
5	92	1.890707044307	0
5	93	1.9	0
5	96	1.927851431333	0
5	97	1.990707044307	0
5	98	2	0
5	101	2.027851431333	0
5	102	2.090707044307	0
5	103	2.1	0
5	106	2.127851431333	0
5	107	2.188253834944	0
5	108	2.190707044307	0
5	109	2.2	0
5	111	2.227851431333	0
5	112	2.288253834944	0
5	113	2.290707044307	0
5	114	2.2927625445	0
5	115	2.3	0
5	117	2.388253834944	0
5	118	2.390707044307	0
5	119	2.3927625445	0
5	120	2.4	0
5	122	2.445847315522	0
5	123	2.488253834944	0
5	124	2.490707044307	0
5	125	2.4927625445	0
5	126	2.5	0
5	127	2.545847315522	0
5	128	2.588253834944	0
5	129	2.590707044307	0
5	130	2.5927625445	0
5	131	2.6	0
5	132	2.645847315522	0
5	133	2.688253834944	0
5	134	2.690707044307	0
5	135	2.6927625445	0
5	136	2.7	0
5	137	2.716883848591	0
5	138	2.745847315522	0
5	139	2.788253834944	0
5	140	2.790707044307	0
5	141	2.7927625445	0
5	142	2.816883848591	0
5	143	2.845847315522	0
5	144	2.888253834944	0
5	145	2.890707044307	0
5	146	2.8927625445	0
5	147	2.916883848591	0
5	148	2.945847315522	0
5	149	2.988253834944	0
5	150	2.990707044307	0
5	151	2.9927625445	0
5	152	3.016883848591	0
5	153	3.045847315522	0
5	154	3.088253834944	0
5	155	3.090707044307	0
5	156	3.0927625445	0
5	157	3.116883848591	0
5	158	3.145847315522	0
5	159	3.188253834944	0
5	160	3.190707044307	0
5	161	3.1927625445	0
5	162	3.216883848591	0
5	163	3.245847315522	0
5	164	3.288253834944	0
5	165	3.290707044307	0
5	166	3.2927625445	0
5	167	3.316883848591	0
5	168	3.345847315522	0
5	169	3.388253834944	0
5	170	3.390707044307	0
5	171	3.3927625445	0
5	172	3.416883848591	0
5	173	3.445847315522	0
5	174	3.488253834944	0
5	175	3.490707044307	0
5	176	3.4927625445	0
5	177	3.516883848591	0
5	178	3.539409705229	0
5	179	3.545847315522	0
5	180	3.588253834944	0
5	181	3.5927625445	0
5	182	3.616883848591	0
5	183	3.639409705229	0
5	184	3.645847315522	0
5	185	3.688253834944	0
5	186	3.6927625445	0
5	187	3.716883848591	0
5	188	3.739409705229	0
5	189	3.745847315522	0
5	190	3.788253834944	0
5	191	3.7927625445	0
5	192	3.816883848591	0
5	193	3.839409705229	0
5	194	3.845847315522	0
5	195	3.888253834944	0
5	196	3.8927625445	0
5	197	3.916883848591	0
5	198	3.939409705229	0
5	199	3.945847315522	0
5	200	3.988253834944	0
5	201	3.9927625445	0
5	202	4.016883848591	0
5	203	4.029663438076	0
5	204	4.039409705229	0
5	205	4.045847315522	0
5	206	4.088253834944	0
5	207	4.098676292788	0
5	208	4.116883848591	0
5	209	4.129663438076	0
5	210	4.139409705229	0
5	211	4.188253834944	0
5	212	4.198676292788	0
5	213	4.216883848591	0
5	214	4.229663438076	0
5	215	4.239409705229	0
5	216	4.288253834944	0
5	217	4.298676292788	0
5	218	4.316883848591	0
5	219	4.329663438076	0
5	220	4.339409705229	0
5	221	4.388253834944	0
5	222	4.398676292788	0
5	223	4.416883848591	0
5	224	4.429663438076	0
5	225	4.439409705229	0
5	226	4.455894000214	0
5	227	4.498676292788	0
5	228	4.516883848591	0
5	229	4.529663438076	0
5	230	4.539409705229	0
5	231	4.555894000214	0
5	232	4.598676292788	0
5	233	4.616883848591	0
5	234	4.629663438076	0
5	235	4.639409705229	0
5	236	4.655894000214	0
5	237	4.698676292788	0
5	238	4.716883848591	0
5	239	4.729663438076	0
5	240	4.739409705229	0
5	241	4.755894000214	0
5	242	4.798676292788	0
5	243	4.816883848591	0
5	244	4.829663438076	0
5	245	4.839409705229	0
5	246	4.855894000214	0
5	247	4.898676292788	0
5	248	4.916883848591	0
5	249	4.929357361238	0
5	250	4.929663438076	0
5	251	4.939409705229	0
5	252	4.955894000214	0
5	253	4.998676292788	0
5	254	5.029357361238	0
5	255	5.029663438076	0
5	256	5.039409705229	0
5	257	5.055894000214	0
5	258	5.098676292788	0
5	259	5.129357361238	0
5	260	5.129663438076	0
5	261	5.139409705229	0
5	262	5.155894000214	0
5	263	5.198676292788	0
5	264	5.229357361238	0
5	265	5.229663438076	0
5	266	5.239409705229	0
5	267	5.255894000214	0
5	268	5.298676292788	0
5	269	5.329357361238	0
5	270	5.329663438076	0
5	271	5.339409705229	0
5	272	5.355894000214	0
5	273	5.398676292788	0
5	274	5.429357361238	0
5	275	5.429663438076	0
5	276	5.439409705229	0
5	277	5.455894000214	0
5	278	5.498676292788	0
5	279	5.529357361238	0
5	280	5.529663438076	0
5	281	5.539409705229	0
5	282	5.555894000214	0
5	283	5.581413358928	0
5	284	5.598676292788	0
5	285	5.614827169023	0
5	286	5.629357361238	0
5	287	5.655894000214	0
5	288	5.681413358928	0
5	289	5.698676292788	0
5	290	5.714827169023	0
5	291	5.729357361238	0
5	292	5.755894000214	0
5	293	5.781413358928	0
5	294	5.798676292788	0
5	295	5.814827169023	0
5	296	5.829357361238	0
5	297	5.855894000214	0
5	298	5.881413358928	0
5	299	5.898676292788	0
5	300	5.914827169023	0
5	301	5.929357361238	0
5	302	5.955894000214	0
5	303	5.981413358928	0
5	304	5.998676292788	0
5	305	6.014827169023	0
5	306	6.029357361238	0
5	307	6.055894000214	0
5	308	6.081413358928	0
5	309	6.098676292788	0
5	310	6.114827169023	0
5	311	6.129357361238	0
5	312	6.155894000214	0
5	313	6.181413358928	0
5	314	6.198676292788	0
5	315	6.214827169023	0
5	316	6.229357361238	0
5	317	6.255894000214	0
5	318	6.281413358928	0
5	319	6.298676292788	0
5	320	6.314827169023	0
5	321	6.329357361238	0
5	322	6.355894000214	0
5	323	6.381413358928	0
6	0	0	254.19287807308
6	1	0.1	251.99219543121
6	6	0.2	249.79151278934
6	11	0.3	247.59083014746
6	16	0.4	245.39014750559
6	21	0.5	243.18946486372
6	26	0.6	240.98878222185
6	31	0.7	238.78809957997
6	36	0.8	236.5874169381
6	41	0.9	234.38673429623
6	46	1	232.18605165436
6	51	1.1	229.98536901248
6	56	1.127851431333	229.37244739763
6	57	1.2	227.78468637061
6	61	1.227851431333	227.17176475575
6	62	1.3	225.58400372874
6	66	1.327851431333	224.97108211388
6	67	1.4	223.38332108687
6	71	1.427851431333	222.77039947201
6	72	1.490707044307	221.38714690785
6	73	1.5	221.18263844499
6	76	1.527851431333	220.56971683014
6	77	1.590707044307	219.18646426597
6	78	1.6	218.98195580312
6	81	1.627851431333	218.36903418826
6	82	1.690707044307	216.9857816241
6	83	1.7	216.78127316125
6	86	1.727851431333	216.16835154639
6	87	1.790707044307	214.78509898223
6	88	1.8	214.58059051938
6	91	1.827851431333	213.96766890452
6	92	1.890707044307	212.58441634036
6	93	1.9	212.3799078775
6	96	1.927851431333	211.76698626264
6	97	1.990707044307	210.38373369848
6	98	2	210.17922523563
6	101	2.027851431333	209.56630362077
6	102	2.090707044307	208.18305105661
6	103	2.1	207.97854259376
6	106	2.127851431333	207.3656209789
6	107	2.188253834944	206.03635576736
6	108	2.190707044307	206.01688744776
6	109	2.2	205.94313987686
6	111	2.227851431333	205.72211489032
6	112	2.288253834944	205.24277003061
6	113	2.290707044307	205.22330171102
6	114	2.2927625445	205.20698955467
6	115	2.3	205.14955414011
6	117	2.388253834944	204.44918429387
6	118	2.390707044307	204.42971597427
6	119	2.3927625445	204.41340381792
6	120	2.4	204.35596840337
6	122	2.445847315522	203.9921306467
6	123	2.488253834944	203.65559855712
6	124	2.490707044307	203.63613023752
6	125	2.4927625445	203.61981808117
6	126	2.5	203.56238266662
6	127	2.545847315522	203.19854490996
6	128	2.588253834944	202.86201282038
6	129	2.590707044307	202.84254450078
6	130	2.5927625445	202.82623234443
6	131	2.6	202.76879692988
6	132	2.645847315522	202.40495917321
6	133	2.688253834944	202.06842708363
6	134	2.690707044307	202.04895876403
6	135	2.6927625445	202.03264660768
6	136	2.7	201.97521119313
6	137	2.716883848591	201.8412233789
6	138	2.745847315522	201.61137343647
6	139	2.788253834944	201.27484134688
6	140	2.790707044307	201.25537302729
6	141	2.7927625445	201.23906087094
6	142	2.816883848591	201.04763764215
6	143	2.845847315522	200.81778769972
6	144	2.888253834944	200.48125561014
6	145	2.890707044307	200.46178729054
6	146	2.8927625445	200.44547513419
6	147	2.916883848591	200.25405190541
6	148	2.945847315522	200.02420196298
6	149	2.988253834944	199.68766987339
6	150	2.990707044307	199.6682015538
6	151	2.9927625445	199.65188939745
6	152	3.016883848591	199.46046616866
6	153	3.045847315522	199.23061622623
6	154	3.088253834944	198.89408413665
6	155	3.090707044307	198.87461581705
6	156	3.0927625445	198.8583036607
6	157	3.116883848591	198.66688043192
6	158	3.145847315522	198.43703048948
6	159	3.188253834944	198.1004983999
6	160	3.190707044307	198.0810300803
6	161	3.1927625445	198.06471792395
6	162	3.216883848591	197.87329469517
6	163	3.245847315522	197.64344475274
6	164	3.288253834944	197.30691266316
6	165	3.290707044307	197.28744434356
6	166	3.2927625445	197.27113218721
6	167	3.316883848591	197.07970895842
6	168	3.345847315522	196.84985901599
6	169	3.388253834944	196.51332692641
6	170	3.390707044307	196.49385860681
6	171	3.3927625445	196.47754645046
6	172	3.416883848591	196.28612322168
6	173	3.445847315522	196.05627327925
6	174	3.488253834944	195.71974118966
6	175	3.490707044307	195.70027287007
6	176	3.4927625445	195.68396071372
6	177	3.516883848591	195.49253748493
6	178	3.539409705229	195.31377549957
6	179	3.545847315522	195.2626875425
6	180	3.588253834944	194.92615545292
6	181	3.5927625445	194.89037497697
6	182	3.616883848591	194.69895174819
6	183	3.639409705229	194.52018976283
6	184	3.645847315522	194.46910180576
6	185	3.688253834944	194.13256971617
6	186	3.6927625445	194.09678924022
6	187	3.716883848591	193.90536601144
6	188	3.739409705229	193.72660402608
6	189	3.745847315522	193.67551606901
6	190	3.788253834944	193.33898397943
6	191	3.7927625445	193.30320350348
6	192	3.816883848591	193.1117802747
6	193	3.839409705229	192.93301828934
6	194	3.845847315522	192.88193033226
6	195	3.888253834944	192.54539824268
6	196	3.8927625445	192.50961776673
6	197	3.916883848591	192.31819453795
6	198	3.939409705229	192.13943255259
6	199	3.945847315522	192.08834459552
6	200	3.988253834944	191.75181250594
6	201	3.9927625445	191.71603202999
6	202	4.016883848591	191.5246088012
6	203	4.029663438076	191.42319180184
6	204	4.039409705229	191.34584681585
6	205	4.045847315522	191.29475885877
6	206	4.088253834944	190.95822676919
6	207	4.098676292788	190.87551563032
6	208	4.116883848591	190.73102306446
6	209	4.129663438076	190.62960606509
6	210	4.139409705229	190.5522610791
6	211	4.188253834944	190.16464103244
6	212	4.198676292788	190.08192989358
6	213	4.216883848591	189.93743732771
6	214	4.229663438076	189.83602032835
6	215	4.239409705229	189.75867534235
6	216	4.288253834944	189.3710552957
6	217	4.298676292788	189.28834415683
6	218	4.316883848591	189.14385159097
6	219	4.329663438076	189.0424345916
6	220	4.339409705229	188.96508960561
6	221	4.388253834944	188.57746955895
6	222	4.398676292788	188.49475842008
6	223	4.416883848591	188.35026585422
6	224	4.429663438076	188.24884885485
6	225	4.439409705229	188.17150386886
6	226	4.455894000214	188.04068685506
6	227	4.498676292788	187.84622322021
6	228	4.516883848591	187.76346216954
6	229	4.529663438076	187.70537352413
6	230	4.539409705229	187.66107261311
6	231	4.555894000214	187.58614451254
6	232	4.598676292788	187.39168087768
6	233	4.616883848591	187.30891982702
6	234	4.629663438076	187.25083118161
6	235	4.639409705229	187.20653027059
6	236	4.655894000214	187.13160217001
6	237	4.698676292788	186.93713853516
6	238	4.716883848591	186.8543774845
6	239	4.729663438076	186.79628883909
6	240	4.739409705229	186.75198792806
6	241	4.755894000214	186.67705982749
6	242	4.798676292788	186.48259619264
6	243	4.816883848591	186.39983514197
6	244	4.829663438076	186.34174649657
6	245	4.839409705229	186.29744558554
6	246	4.855894000214	186.22251748497
6	247	4.898676292788	186.02805385012
6	248	4.916883848591	185.94529279945
6	249	4.929357361238	185.88859540287
6	250	4.929663438076	185.88720415404
6	251	4.939409705229	185.84290324302
6	252	4.955894000214	185.76797514244
6	253	4.998676292788	185.57351150759
6	254	5.029357361238	185.43405306035
6	255	5.029663438076	185.43266181152
6	256	5.039409705229	185.38836090049
6	257	5.055894000214	185.31343279992
6	258	5.098676292788	185.11896916507
6	259	5.129357361238	184.97951071783
6	260	5.129663438076	184.978119469
6	261	5.139409705229	184.93381855797
6	262	5.155894000214	184.8588904574
6	263	5.198676292788	184.66442682255
6	264	5.229357361238	184.5249683753
6	265	5.229663438076	184.52357712647
6	266	5.239409705229	184.47927621545
6	267	5.255894000214	184.40434811487
6	268	5.298676292788	184.20988448002
6	269	5.329357361238	184.07042603278
6	270	5.329663438076	184.06903478395
6	271	5.339409705229	184.02473387292
6	272	5.355894000214	183.94980577235
6	273	5.398676292788	183.7553421375
6	274	5.429357361238	183.61588369026
6	275	5.429663438076	183.61449244143
6	276	5.439409705229	183.5701915304
6	277	5.455894000214	183.49526342983
6	278	5.498676292788	183.30079979498
6	279	5.529357361238	183.16134134773
6	280	5.529663438076	183.1599500989
6	281	5.539409705229	183.11564918788
6	282	5.555894000214	183.0407210873
6	283	5.581413358928	182.92472479641
6	284	5.598676292788	182.84625745245
6	285	5.614827169023	182.77284488128
6	286	5.629357361238	182.70679900521
6	287	5.655894000214	182.58617874478
6	288	5.681413358928	182.47018245389
6	289	5.698676292788	182.39171510993
6	290	5.714827169023	182.31830253875
6	291	5.729357361238	182.25225666269
6	292	5.755894000214	182.13163640226
6	293	5.781413358928	182.01564011136
6	294	5.798676292788	181.93717276741
6	295	5.814827169023	181.86376019623
6	296	5.829357361238	181.79771432016
6	297	5.855894000214	181.67709405973
6	298	5.881413358928	181.56109776884
6	299	5.898676292788	181.48263042488
6	300	5.914827169023	181.40921785371
6	301	5.929357361238	181.34317197764
6	302	5.955894000214	181.22255171721
6	303	5.981413358928	181.10655542632
6	304	5.998676292788	181.02808808236
6	305	6.014827169023	180.95467551118
6	306	6.029357361238	180.88862963512
6	307	6.055894000214	180.76800937469
6	308	6.081413358928	180.65201308379
6	309	6.098676292788	180.57354573984
6	310	6.114827169023	180.50013316866
6	311	6.129357361238	180.43408729259
6	312	6.155894000214	180.31346703217
6	313	6.181413358928	180.19747074127
6	314	6.198676292788	180.11900339731
6	315	6.214827169023	180.04559082614
6	316	6.229357361238	179.97954495007
6	317	6.255894000214	179.85892468964
6	318	6.281413358928	179.74292839875
6	319	6.298676292788	179.66446105479
6	320	6.314827169023	179.59104848361
6	321	6.329357361238	179.52500260755
6	322	6.355894000214	179.40438234712
6	323	6.381413358928	179.28838605622
7	0	0	249.42547855899
7	1	0.1	250.61389858369
7	6	0.2	251.80231860839
7	11	0.3	252.99073863309
7	16	0.4	254.17915865778
7	21	0.5	255.36757868248
7	26	0.6	256.55599870718
7	31	0.7	257.74441873188
7	36	0.8	258.93283875658
7	41	0.9	260.12125878128
7	46	1	261.30967880598
7	51	1.1	262.49809883068
7	56	1.127851431333	262.82909081781
7	57	1.2	263.68651885538
7	61	1.227851431333	264.01751084251
7	62	1.3	264.87493888008
7	66	1.327851431333	265.20593086721
7	67	1.4	266.06335890478
7	71	1.427851431333	266.3943508919
7	72	1.490707044307	267.14133958314
7	73	1.5	267.25177892948
7	76	1.527851431333	267.5827709166
7	77	1.590707044307	268.32975960783
7	78	1.6	268.44019895418
7	81	1.627851431333	268.7711909413
7	82	1.690707044307	269.51817963253
7	83	1.7	269.62861897888
7	86	1.727851431333	269.959610966
7	87	1.790707044307	270.70659965723
7	88	1.8	270.81703900358
7	91	1.827851431333	271.1480309907
7	92	1.890707044307	271.89501968193
7	93	1.9	272.00545902827
7	96	1.927851431333	272.3364510154
7	97	1.990707044307	273.08343970663
7	98	2	273.19387905297
7	101	2.027851431333	273.5248710401
7	102	2.090707044307	274.27185973133
7	103	2.1	274.38229907767
7	106	2.127851431333	274.7132910648
7	107	2.188253834944	275.43112532471
7	108	2.190707044307	275.45231284616
7	109	2.2	275.53257289285
7	111	2.227851431333	275.77311607988
7	112	2.288253834944	276.29479076493
7	113	2.290707044307	276.31597828637
7	114	2.2927625445	276.33373093116
7	115	2.3	276.39623833307
7	117	2.388253834944	277.15845620514
7	118	2.390707044307	277.17964372659
7	119	2.3927625445	277.19739637138
7	120	2.4	277.25990377328
7	122	2.445847315522	277.65587119271
7	123	2.488253834944	278.02212164536
7	124	2.490707044307	278.0433091668
7	125	2.4927625445	278.06106181159
7	126	2.5	278.1235692135
7	127	2.545847315522	278.51953663293
7	128	2.588253834944	278.88578708557
7	129	2.590707044307	278.90697460702
7	130	2.5927625445	278.92472725181
7	131	2.6	278.98723465371
7	132	2.645847315522	279.38320207314
7	133	2.688253834944	279.74945252579
7	134	2.690707044307	279.77064004723
7	135	2.6927625445	279.78839269203
7	136	2.7	279.85090009393
7	137	2.716883848591	279.99672005919
7	138	2.745847315522	280.24686751336
7	139	2.788253834944	280.61311796601
7	140	2.790707044307	280.63430548745
7	141	2.7927625445	280.65205813224
7	142	2.816883848591	280.8603854994
7	143	2.845847315522	281.11053295358
7	144	2.888253834944	281.47678340622
7	145	2.890707044307	281.49797092767
7	146	2.8927625445	281.51572357246
7	147	2.916883848591	281.72405093962
7	148	2.945847315522	281.97419839379
7	149	2.988253834944	282.34044884644
7	150	2.990707044307	282.36163636788
7	151	2.9927625445	282.37938901267
7	152	3.016883848591	282.58771637984
7	153	3.045847315522	282.83786383401
7	154	3.088253834944	283.20411428665
7	155	3.090707044307	283.2253018081
7	156	3.0927625445	283.24305445289
7	157	3.116883848591	283.45138182005
7	158	3.145847315522	283.70152927422
7	159	3.188253834944	284.06777972687
7	160	3.190707044307	284.08896724831
7	161	3.1927625445	284.1067198931
7	162	3.216883848591	284.31504726027
7	163	3.245847315522	284.56519471444
7	164	3.288253834944	284.93144516708
7	165	3.290707044307	284.95263268853
7	166	3.2927625445	284.97038533332
7	167	3.316883848591	285.17871270048
7	168	3.345847315522	285.42886015465
7	169	3.388253834944	285.7951106073
7	170	3.390707044307	285.81629812874
7	171	3.3927625445	285.83405077353
7	172	3.416883848591	286.0423781407
7	173	3.445847315522	286.29252559487
7	174	3.488253834944	286.65877604751
7	175	3.490707044307	286.67996356896
7	176	3.4927625445	286.69771621375
7	177	3.516883848591	286.90604358091
7	178	3.539409705229	287.10059161981
7	179	3.545847315522	287.15619103508
7	180	3.588253834944	287.52244148773
7	181	3.5927625445	287.56138165396
7	182	3.616883848591	287.76970902113
7	183	3.639409705229	287.96425706002
7	184	3.645847315522	288.0198564753
7	185	3.688253834944	288.38610692795
7	186	3.6927625445	288.42504709418
7	187	3.716883848591	288.63337446134
7	188	3.739409705229	288.82792250024
7	189	3.745847315522	288.88352191551
7	190	3.788253834944	289.24977236816
7	191	3.7927625445	289.2887125344
7	192	3.816883848591	289.49703990156
7	193	3.839409705229	289.69158794045
7	194	3.845847315522	289.74718735573
7	195	3.888253834944	290.11343780838
7	196	3.8927625445	290.15237797461
7	197	3.916883848591	290.36070534177
7	198	3.939409705229	290.55525338067
7	199	3.945847315522	290.61085279595
7	200	3.988253834944	290.97710324859
7	201	3.9927625445	291.01604341483
7	202	4.016883848591	291.22437078199
7	203	4.029663438076	291.33474367977
7	204	4.039409705229	291.41891882088
7	205	4.045847315522	291.47451823616
7	206	4.088253834944	291.84076868881
7	207	4.098676292788	291.93078385523
7	208	4.116883848591	292.08803622221
7	209	4.129663438076	292.19840911999
7	210	4.139409705229	292.2825842611
7	211	4.188253834944	292.70443412902
7	212	4.198676292788	292.79444929544
7	213	4.216883848591	292.95170166242
7	214	4.229663438076	293.0620745602
7	215	4.239409705229	293.14624970132
7	216	4.288253834944	293.56809956924
7	217	4.298676292788	293.65811473566
7	218	4.316883848591	293.81536710264
7	219	4.329663438076	293.92574000042
7	220	4.339409705229	294.00991514153
7	221	4.388253834944	294.43176500945
7	222	4.398676292788	294.52178017587
7	223	4.416883848591	294.67903254285
7	224	4.429663438076	294.78940544064
7	225	4.439409705229	294.87358058175
7	226	4.455894000214	295.0159497406
7	227	4.498676292788	295.15864912714
7	228	4.516883848591	295.21938002507
7	229	4.529663438076	295.26200606192
7	230	4.539409705229	295.29451451951
7	231	4.555894000214	295.34949751927
7	232	4.598676292788	295.49219690581
7	233	4.616883848591	295.55292780374
7	234	4.629663438076	295.59555384059
7	235	4.639409705229	295.62806229819
7	236	4.655894000214	295.68304529794
7	237	4.698676292788	295.82574468448
7	238	4.716883848591	295.88647558241
7	239	4.729663438076	295.92910161927
7	240	4.739409705229	295.96161007686
7	241	4.755894000214	296.01659307661
7	242	4.798676292788	296.15929246315
7	243	4.816883848591	296.22002336109
7	244	4.829663438076	296.26264939794
7	245	4.839409705229	296.29515785553
7	246	4.855894000214	296.35014085528
7	247	4.898676292788	296.49284024183
7	248	4.916883848591	296.55357113976
7	249	4.929357361238	296.59517626411
7	250	4.929663438076	296.59619717661
7	251	4.939409705229	296.6287056342
7	252	4.955894000214	296.68368863395
7	253	4.998676292788	296.8263880205
7	254	5.029357361238	296.92872404279
7	255	5.029663438076	296.92974495528
7	256	5.039409705229	296.96225341287
7	257	5.055894000214	297.01723641262
7	258	5.098676292788	297.15993579917
7	259	5.129357361238	297.26227182146
7	260	5.129663438076	297.26329273395
7	261	5.139409705229	297.29580119154
7	262	5.155894000214	297.3507841913
7	263	5.198676292788	297.49348357784
7	264	5.229357361238	297.59581960013
7	265	5.229663438076	297.59684051262
7	266	5.239409705229	297.62934897021
7	267	5.255894000214	297.68433196997
7	268	5.298676292788	297.82703135651
7	269	5.329357361238	297.9293673788
7	270	5.329663438076	297.93038829129
7	271	5.339409705229	297.96289674889
7	272	5.355894000214	298.01787974864
7	273	5.398676292788	298.16057913518
7	274	5.429357361238	298.26291515747
7	275	5.429663438076	298.26393606997
7	276	5.439409705229	298.29644452756
7	277	5.455894000214	298.35142752731
7	278	5.498676292788	298.49412691386
7	279	5.529357361238	298.59646293614
7	280	5.529663438076	298.59748384864
7	281	5.539409705229	298.62999230623
7	282	5.555894000214	298.68497530598
7	283	5.581413358928	298.7700945601
7	284	5.598676292788	298.82767469253
7	285	5.614827169023	298.88154558144
7	286	5.629357361238	298.93001071481
7	287	5.655894000214	299.01852308465
7	288	5.681413358928	299.10364233877
7	289	5.698676292788	299.1612224712
7	290	5.714827169023	299.21509336012
7	291	5.729357361238	299.26355849349
7	292	5.755894000214	299.35207086332
7	293	5.781413358928	299.43719011745
7	294	5.798676292788	299.49477024987
7	295	5.814827169023	299.54864113879
7	296	5.829357361238	299.59710627216
7	297	5.855894000214	299.685618642
7	298	5.881413358928	299.77073789612
7	299	5.898676292788	299.82831802854
7	300	5.914827169023	299.88218891746
7	301	5.929357361238	299.93065405083
7	302	5.955894000214	300.01916642067
7	303	5.981413358928	300.10428567479
7	304	5.998676292788	300.16186580721
7	305	6.014827169023	300.21573669613
7	306	6.029357361238	300.2642018295
7	307	6.055894000214	300.35271419934
7	308	6.081413358928	300.43783345346
7	309	6.098676292788	300.49541358588
7	310	6.114827169023	300.5492844748
7	311	6.129357361238	300.59774960817
7	312	6.155894000214	300.68626197801
7	313	6.181413358928	300.77138123213
7	314	6.198676292788	300.82896136456
7	315	6.214827169023	300.88283225347
7	316	6.229357361238	300.93129738684
7	317	6.255894000214	301.01980975668
7	318	6.281413358928	301.1049290108
7	319	6.298676292788	301.16250914323
7	320	6.314827169023	301.21638003214
7	321	6.329357361238	301.26484516551
7	322	6.355894000214	301.35335753535
7	323	6.381413358928	301.43847678947
8	0	0	0
8	1	0.1	0
8	6	0.2	0
8	11	0.3	0
8	16	0.4	0
8	21	0.5	0
8	26	0.6	0
8	31	0.7	0
8	36	0.8	0
8	41	0.9	0
8	46	1	0
8	51	1.1	0
8	56	1.127851431333	0
8	57	1.2	0
8	61	1.227851431333	0
8	62	1.3	0
8	66	1.327851431333	0
8	67	1.4	0
8	71	1.427851431333	0
8	72	1.490707044307	0
8	73	1.5	0
8	76	1.527851431333	0
8	77	1.590707044307	0
8	78	1.6	0
8	81	1.627851431333	0
8	82	1.690707044307	0
8	83	1.7	0
8	86	1.727851431333	0
8	87	1.790707044307	0
8	88	1.8	0
8	91	1.827851431333	0
8	92	1.890707044307	0
8	93	1.9	0
8	96	1.927851431333	0
8	97	1.990707044307	0
8	98	2	0
8	101	2.027851431333	0
8	102	2.090707044307	0
8	103	2.1	0
8	106	2.127851431333	0
8	107	2.188253834944	0
8	108	2.190707044307	0
8	109	2.2	0
8	111	2.227851431333	0
8	112	2.288253834944	0
8	113	2.290707044307	0
8	114	2.2927625445	0
8	115	2.3	0
8	117	2.388253834944	0
8	118	2.390707044307	0
8	119	2.3927625445	0
8	120	2.4	0
8	122	2.445847315522	0
8	123	2.488253834944	0
8	124	2.490707044307	0
8	125	2.4927625445	0
8	126	2.5	0
8	127	2.545847315522	0
8	128	2.588253834944	0
8	129	2.590707044307	0
8	130	2.5927625445	0
8	131	2.6	0
8	132	2.645847315522	0
8	133	2.688253834944	0
8	134	2.690707044307	0
8	135	2.6927625445	0
8	136	2.7	0
8	137	2.716883848591	0
8	138	2.745847315522	0
8	139	2.788253834944	0
8	140	2.790707044307	0
8	141	2.7927625445	0
8	142	2.816883848591	0
8	143	2.845847315522	0
8	144	2.888253834944	0
8	145	2.890707044307	0
8	146	2.8927625445	0
8	147	2.916883848591	0
8	148	2.945847315522	0
8	149	2.988253834944	0
8	150	2.990707044307	0
8	151	2.9927625445	0
8	152	3.016883848591	0
8	153	3.045847315522	0
8	154	3.088253834944	0
8	155	3.090707044307	0
8	156	3.0927625445	0
8	157	3.116883848591	0
8	158	3.145847315522	0
8	159	3.188253834944	0
8	160	3.190707044307	0
8	161	3.1927625445	0
8	162	3.216883848591	0
8	163	3.245847315522	0
8	164	3.288253834944	0
8	165	3.290707044307	0
8	166	3.2927625445	0
8	167	3.316883848591	0
8	168	3.345847315522	0
8	169	3.388253834944	0
8	170	3.390707044307	0
8	171	3.3927625445	0
8	172	3.416883848591	0
8	173	3.445847315522	0
8	174	3.488253834944	0
8	175	3.490707044307	0
8	176	3.4927625445	0
8	177	3.516883848591	0
8	178	3.539409705229	0
8	179	3.545847315522	0
8	180	3.588253834944	0
8	181	3.5927625445	0
8	182	3.616883848591	0
8	183	3.639409705229	0
8	184	3.645847315522	0
8	185	3.688253834944	0
8	186	3.6927625445	0
8	187	3.716883848591	0
8	188	3.739409705229	0
8	189	3.745847315522	0
8	190	3.788253834944	0
8	191	3.7927625445	0
8	192	3.816883848591	0
8	193	3.839409705229	0
8	194	3.845847315522	0
8	195	3.888253834944	0
8	196	3.8927625445	0
8	197	3.916883848591	0
8	198	3.939409705229	0
8	199	3.945847315522	0
8	200	3.988253834944	0
8	201	3.9927625445	0
8	202	4.016883848591	0
8	203	4.029663438076	0
8	204	4.039409705229	0
8	205	4.045847315522	0
8	206	4.088253834944	0
8	207	4.098676292788	0
8	208	4.116883848591	0
8	209	4.129663438076	0
8	210	4.139409705229	0
8	211	4.188253834944	0
8	212	4.198676292788	0
8	213	4.216883848591	0
8	214	4.229663438076	0
8	215	4.239409705229	0
8	216	4.288253834944	0
8	217	4.298676292788	0
8	218	4.316883848591	0
8	219	4.329663438076	0
8	220	4.339409705229	0
8	221	4.388253834944	0
8	222	4.398676292788	0
8	223	4.416883848591	0
8	224	4.429663438076	0
8	225	4.439409705229	0
8	226	4.455894000214	0
8	227	4.498676292788	0
8	228	4.516883848591	0
8	229	4.529663438076	0
8	230	4.539409705229	0
8	231	4.555894000214	0
8	232	4.598676292788	0
8	233	4.616883848591	0
8	234	4.629663438076	0
8	235	4.639409705229	0
8	236	4.655894000214	0
8	237	4.698676292788	0
8	238	4.716883848591	0
8	239	4.729663438076	0
8	240	4.739409705229	0
8	241	4.755894000214	0
8	242	4.798676292788	0
8	243	4.816883848591	0
8	244	4.829663438076	0
8	245	4.839409705229	0
8	246	4.855894000214	0
8	247	4.898676292788	0
8	248	4.916883848591	0
8	249	4.929357361238	0
8	250	4.929663438076	0
8	251	4.939409705229	0
8	252	4.955894000214	0
8	253	4.998676292788	0
8	254	5.029357361238	0
8	255	5.029663438076	0
8	256	5.039409705229	0
8	257	5.055894000214	0
8	258	5.098676292788	0
8	259	5.129357361238	0
8	260	5.129663438076	0
8	261	5.139409705229	0
8	262	5.155894000214	0
8	263	5.198676292788	0
8	264	5.229357361238	0
8	265	5.229663438076	0
8	266	5.239409705229	0
8	267	5.255894000214	0
8	268	5.298676292788	0
8	269	5.329357361238	0
8	270	5.329663438076	0
8	271	5.339409705229	0
8	272	5.355894000214	0
8	273	5.398676292788	0
8	274	5.429357361238	0
8	275	5.429663438076	0
8	276	5.439409705229	0
8	277	5.455894000214	0
8	278	5.498676292788	0
8	279	5.529357361238	0
8	280	5.529663438076	0
8	281	5.539409705229	0
8	282	5.555894000214	0
8	283	5.581413358928	0
8	284	5.598676292788	0
8	285	5.614827169023	0
8	286	5.629357361238	0
8	287	5.655894000214	0
8	288	5.681413358928	0
8	289	5.698676292788	0
8	290	5.714827169023	0
8	291	5.729357361238	0
8	292	5.755894000214	0
8	293	5.781413358928	0
8	294	5.798676292788	0
8	295	5.814827169023	0
8	296	5.829357361238	0
8	297	5.855894000214	0
8	298	5.881413358928	0
8	299	5.898676292788	0
8	300	5.914827169023	0
8	301	5.929357361238	0
8	302	5.955894000214	0
8	303	5.981413358928	0
8	304	5.998676292788	0
8	305	6.014827169023	0
8	306	6.029357361238	0
8	307	6.055894000214	0
8	308	6.081413358928	0
8	309	6.098676292788	0
8	310	6.114827169023	0
8	311	6.129357361238	0
8	312	6.155894000214	0
8	313	6.181413358928	0
8	314	6.198676292788	0
8	315	6.214827169023	0
8	316	6.229357361238	0
8	317	6.255894000214	0
8	318	6.281413358928	0
8	319	6.298676292788	0
8	320	6.314827169023	0
8	321	6.329357361238	0
8	322	6.355894000214	0
8	323	6.381413358928	0
9	0	0	262.55232598633
9	1	0.1	263.94078610502
9	6	0.2	265.32924622371
9	11	0.3	266.7177063424
9	16	0.4	268.1061664611
9	21	0.5	269.49462657979
9	26	0.6	270.88308669848
9	31	0.7	272.27154681717
9	36	0.8	273.66000693587
9	41	0.9	275.04846705456
9	46	1	276.43692717325
9	51	1.1	277.82538729195
9	56	1.127851431333	278.21209330849
9	57	1.2	278.59603775379
9	61	1.227851431333	278.74425139893
9	62	1.3	279.12819584422
9	66	1.327851431333	279.27640948937
9	67	1.4	279.66035393466
9	71	1.427851431333	279.8085675798
9	72	1.490707044307	280.14305880954
9	73	1.5	280.1925120251
9	76	1.527851431333	280.34072567024
9	77	1.590707044307	280.67521689998
9	78	1.6	280.72467011554
9	81	1.627851431333	280.87288376068
9	82	1.690707044307	281.20737499042
9	83	1.7	281.25682820598
9	86	1.727851431333	281.40504185112
9	87	1.790707044307	281.73953308085
9	88	1.8	281.78898629641
9	91	1.827851431333	281.93719994156
9	92	1.890707044307	282.27169117129
9	93	1.9	282.32114438685
9	96	1.927851431333	282.46935803199
9	97	1.990707044307	282.80384926173
9	98	2	282.85330247729
9	101	2.027851431333	283.00151612243
9	102	2.090707044307	283.33600735217
9	103	2.1	283.38546056773
9	106	2.127851431333	283.53367421287
9	107	2.188253834944	283.85511049051
9	108	2.190707044307	283.86816544261
9	109	2.2	283.91761865817
9	111	2.227851431333	284.06583230331
9	112	2.288253834944	284.38726858094
9	113	2.290707044307	284.40032353304
9	114	2.2927625445	284.41126204362
9	115	2.3	284.49728692943
9	117	2.388253834944	285.54627798348
9	118	2.390707044307	285.57543699597
9	119	2.3927625445	285.59986881036
9	120	2.4	285.68589369617
9	122	2.445847315522	286.23083799083
9	123	2.488253834944	286.73488475022
9	124	2.490707044307	286.76404376271
9	125	2.4927625445	286.78847557709
9	126	2.5	286.87450046291
9	127	2.545847315522	287.41944475757
9	128	2.588253834944	287.92349151696
9	129	2.590707044307	287.95265052945
9	130	2.5927625445	287.97708234383
9	131	2.6	288.06310722964
9	132	2.645847315522	288.60805152431
9	133	2.688253834944	289.11209828369
9	134	2.690707044307	289.14125729618
9	135	2.6927625445	289.16568911057
9	136	2.7	289.25171399638
9	137	2.716883848591	289.45239656322
9	138	2.745847315522	289.79665829104
9	139	2.788253834944	290.30070505043
9	140	2.790707044307	290.32986406292
9	141	2.7927625445	290.35429587731
9	142	2.816883848591	290.64100332996
9	143	2.845847315522	290.98526505778
9	144	2.888253834944	291.48931181717
9	145	2.890707044307	291.51847082966
9	146	2.8927625445	291.54290264404
9	147	2.916883848591	291.82961009669
9	148	2.945847315522	292.17387182452
9	149	2.988253834944	292.67791858391
9	150	2.990707044307	292.7070775964
9	151	2.9927625445	292.73150941078
9	152	3.016883848591	293.01821686343
9	153	3.045847315522	293.36247859126
9	154	3.088253834944	293.86652535064
9	155	3.090707044307	293.89568436313
9	156	3.0927625445	293.92011617752
9	157	3.116883848591	294.20682363017
9	158	3.145847315522	294.55108535799
9	159	3.188253834944	295.05513211738
9	160	3.190707044307	295.08429112987
9	161	3.1927625445	295.10872294426
9	162	3.216883848591	295.39543039691
9	163	3.245847315522	295.73969212473
9	164	3.288253834944	296.24373888412
9	165	3.290707044307	296.27289789661
9	166	3.2927625445	296.29732971099
9	167	3.316883848591	296.58403716364
9	168	3.345847315522	296.92829889147
9	169	3.388253834944	297.43234565085
9	170	3.390707044307	297.46150466335
9	171	3.3927625445	297.48593647773
9	172	3.416883848591	297.77264393038
9	173	3.445847315522	298.1169056582
9	174	3.488253834944	298.62095241759
9	175	3.490707044307	298.65011143008
9	176	3.4927625445	298.67454324447
9	177	3.516883848591	298.96125069712
9	178	3.539409705229	299.22899455338
9	179	3.545847315522	299.30551242494
9	180	3.588253834944	299.80955918433
9	181	3.5927625445	299.8631500112
9	182	3.616883848591	300.14985746386
9	183	3.639409705229	300.41760132012
9	184	3.645847315522	300.49411919168
9	185	3.688253834944	300.99816595107
9	186	3.6927625445	301.05175677794
9	187	3.716883848591	301.33846423059
9	188	3.739409705229	301.60620808686
9	189	3.745847315522	301.68272595842
9	190	3.788253834944	302.1867727178
9	191	3.7927625445	302.24036354468
9	192	3.816883848591	302.52707099733
9	193	3.839409705229	302.79481485359
9	194	3.845847315522	302.87133272515
9	195	3.888253834944	303.37537948454
9	196	3.8927625445	303.42897031142
9	197	3.916883848591	303.71567776407
9	198	3.939409705229	303.98342162033
9	199	3.945847315522	304.05993949189
9	200	3.988253834944	304.56398625128
9	201	3.9927625445	304.61757707815
9	202	4.016883848591	304.9042845308
9	203	4.029663438076	305.05618359618
9	204	4.039409705229	305.1462567219
9	205	4.045847315522	305.20575187754
9	206	4.088253834944	305.59766477045
9	207	4.098676292788	305.69398712042
9	208	4.116883848591	305.86225784777
9	209	4.129663438076	305.98036435482
9	210	4.139409705229	306.07043748053
9	211	4.188253834944	306.52184552908
9	212	4.198676292788	306.61816787905
9	213	4.216883848591	306.7864386064
9	214	4.229663438076	306.90454511346
9	215	4.239409705229	306.99461823917
9	216	4.288253834944	307.44602628772
9	217	4.298676292788	307.54234863769
9	218	4.316883848591	307.71061936504
9	219	4.329663438076	307.82872587209
9	220	4.339409705229	307.9187989978
9	221	4.388253834944	308.37020704635
9	222	4.398676292788	308.46652939632
9	223	4.416883848591	308.63480012367
9	224	4.429663438076	308.75290663073
9	225	4.439409705229	308.84297975644
9	226	4.455894000214	308.99532443889
9	227	4.498676292788	309.39071015496
9	228	4.516883848591	309.55898088231
[...]
12	192	3.816883848591	533.8403160555
12	193	3.839409705229	533.42940432306
12	194	3.845847315522	533.31197084912
12	195	3.888253834944	532.53840042991
12	196	3.8927625445	532.45615353984
12	197	3.916883848591	532.01613800515
12	198	3.939409705229	531.60522627271
12	199	3.945847315522	531.48779279877
12	200	3.988253834944	530.71422237956
12	201	3.9927625445	530.63197548949
12	202	4.016883848591	530.1919599548
12	203	4.029663438076	529.95883748849
12	204	4.039409705229	529.78104822236
12	205	4.045847315522	529.66361474843
12	206	4.088253834944	528.89004432921
12	207	4.098676292788	528.69992014092
12	208	4.116883848591	528.36778190445
12	209	4.129663438076	528.13465943814
12	210	4.139409705229	527.95687017201
12	211	4.188253834944	527.06586627887
12	212	4.198676292788	526.87574209057
12	213	4.216883848591	526.5436038541
12	214	4.229663438076	526.3104813878
12	215	4.239409705229	526.13269212166
12	216	4.288253834944	525.24168822852
12	217	4.298676292788	525.05156404022
12	218	4.316883848591	524.71942580376
12	219	4.329663438076	524.48630333745
12	220	4.339409705229	524.30851407131
12	221	4.388253834944	523.41751017817
12	222	4.398676292788	523.22738598987
12	223	4.416883848591	522.89524775341
12	224	4.429663438076	522.6621252871
12	225	4.439409705229	522.48433602096
12	226	4.455894000214	522.18363313009
12	227	4.498676292788	521.40320793952
12	228	4.516883848591	521.07106970306
12	229	4.529663438076	520.83794723675
12	230	4.539409705229	520.66015797062
12	231	4.555894000214	520.35945507975
12	232	4.598676292788	519.57902988917
12	233	4.616883848591	519.24689165271
12	234	4.629663438076	519.0137691864
12	235	4.639409705229	518.83597992027
12	236	4.655894000214	518.5352770294
12	237	4.698676292788	517.75485183883
12	238	4.716883848591	517.42271360236
12	239	4.729663438076	517.18959113605
12	240	4.739409705229	517.01180186992
12	241	4.755894000214	516.71109897905
12	242	4.798676292788	515.93067378848
12	243	4.816883848591	515.59853555201
12	244	4.829663438076	515.3654130857
12	245	4.839409705229	515.18762381957
12	246	4.855894000214	514.8869209287
12	247	4.898676292788	514.10649573813
12	248	4.916883848591	513.77435750167
12	249	4.929357361238	513.54681842185
12	250	4.929663438076	513.54123503536
12	251	4.939409705229	513.36344576922
12	252	4.955894000214	513.06274287835
12	253	4.998676292788	512.28231768778
12	254	5.029357361238	511.7226403715
12	255	5.029663438076	511.71705698501
12	256	5.039409705229	511.53926771887
12	257	5.055894000214	511.238564828
12	258	5.098676292788	510.45813963743
12	259	5.129357361238	509.89846232116
12	260	5.129663438076	509.89287893466
12	261	5.139409705229	509.71508966853
12	262	5.155894000214	509.41438677766
12	263	5.198676292788	508.63396158708
12	264	5.229357361238	508.07428427081
12	265	5.229663438076	508.06870088431
12	266	5.239409705229	507.89091161818
12	267	5.255894000214	507.59020872731
12	268	5.298676292788	506.80978353674
12	269	5.329357361238	506.25010622046
12	270	5.329663438076	506.24452283396
12	271	5.339409705229	506.06673356783
12	272	5.355894000214	505.76603067696
12	273	5.398676292788	504.98560548639
12	274	5.429357361238	504.42592817011
12	275	5.429663438076	504.42034478361
12	276	5.439409705229	504.24255551748
12	277	5.455894000214	503.94185262661
12	278	5.498676292788	503.16142743604
12	279	5.529357361238	502.60175011976
12	280	5.529663438076	502.59616673327
12	281	5.539409705229	502.41837746713
12	282	5.555894000214	502.11767457626
12	283	5.581413358928	501.65215603601
12	284	5.598676292788	501.33724938569
12	285	5.614827169023	501.04262864647
12	286	5.629357361238	500.95007375836
12	287	5.655894000214	500.78103981751
12	288	5.681413358928	500.61848578136
12	289	5.698676292788	500.50852378716
12	290	5.714827169023	500.40564541358
12	291	5.729357361238	500.31309052547
12	292	5.755894000214	500.14405658462
12	293	5.781413358928	499.98150254847
12	294	5.798676292788	499.87154055427
12	295	5.814827169023	499.76866218069
12	296	5.829357361238	499.67610729258
12	297	5.855894000214	499.50707335173
12	298	5.881413358928	499.34451931558
12	299	5.898676292788	499.23455732138
12	300	5.914827169023	499.1316789478
12	301	5.929357361238	499.03912405968
12	302	5.955894000214	498.87009011883
12	303	5.981413358928	498.70753608269
12	304	5.998676292788	498.59757408849
12	305	6.014827169023	498.49469571491
12	306	6.029357361238	498.40214082679
12	307	6.055894000214	498.23310688594
12	308	6.081413358928	498.07055284979
12	309	6.098676292788	497.9605908556
12	310	6.114827169023	497.85771248202
12	311	6.129357361238	497.7651575939
12	312	6.155894000214	497.59612365305
12	313	6.181413358928	497.4335696169
12	314	6.198676292788	497.32360762271
12	315	6.214827169023	497.22072924913
12	316	6.229357361238	497.12817436101
12	317	6.255894000214	496.95914042016
12	318	6.281413358928	496.79658638401
12	319	6.298676292788	496.68662438982
12	320	6.314827169023	496.58374601624
12	321	6.329357361238	496.49119112812
12	322	6.355894000214	496.32215718727
12	323	6.381413358928	496.15960315112
13	0	0	109.06251780689
13	1	0.1	108.24753027953
13	6	0.2	107.43254275217
13	11	0.3	106.61755522481
13	16	0.4	105.80256769745
13	21	0.5	104.98758017009
13	26	0.6	104.17259264273
13	31	0.7	103.35760511537
13	36	0.8	102.54261758801
13	41	0.9	101.72763006065
13	46	1	100.91264253329
13	51	1.1	100.09765500593
13	56	1.127851431333	99.870669314379
13	57	1.2	99.282667478575
13	61	1.227851431333	99.05568178702
13	62	1.3	98.467679951216
13	66	1.327851431333	98.240694259661
13	67	1.4	97.652692423856
13	71	1.427851431333	97.425706732301
13	72	1.490707044307	96.913441326318
13	73	1.5	96.888432291596
13	76	1.527851431333	96.813479022017
13	77	1.590707044307	96.644323130261
13	78	1.6	96.619314095539
13	81	1.627851431333	96.54436082596
13	82	1.690707044307	96.375204934203
13	83	1.7	96.350195899482
13	86	1.727851431333	96.275242629902
13	87	1.790707044307	96.106086738146
13	88	1.8	96.081077703425
13	91	1.827851431333	96.006124433845
13	92	1.890707044307	95.836968542089
13	93	1.9	95.811959507367
13	96	1.927851431333	95.737006237788
13	97	1.990707044307	95.567850346032
13	98	2	95.54284131131
13	101	2.027851431333	95.467888041731
13	102	2.090707044307	95.298732149974
13	103	2.1	95.273723115253
13	106	2.127851431333	95.198769845674
13	107	2.188253834944	95.0362159867
13	108	2.190707044307	95.029613953917
13	109	2.2	95.004604919196
13	111	2.227851431333	94.929651649616
13	112	2.288253834944	94.767097790643
13	113	2.290707044307	94.76049575786
13	114	2.2927625445	94.754964032821
13	115	2.3	94.735486723139
13	117	2.388253834944	94.497979594586
13	118	2.390707044307	94.491377561803
13	119	2.3927625445	94.485845836763
13	120	2.4	94.466368527081
13	122	2.445847315522	94.342985058608
13	123	2.488253834944	94.228861398529
13	124	2.490707044307	94.222259365745
13	125	2.4927625445	94.216727640706
13	126	2.5	94.197250331024
13	127	2.545847315522	94.073866862551
13	128	2.588253834944	93.959743202471
13	129	2.590707044307	93.953141169688
13	130	2.5927625445	93.947609444649
13	131	2.6	93.928132134967
13	132	2.645847315522	93.804748666493
13	133	2.688253834944	93.690625006414
13	134	2.690707044307	93.684022973631
13	135	2.6927625445	93.678491248592
13	136	2.7	93.65901393891
13	137	2.716883848591	93.613576430156
13	138	2.745847315522	93.535630470436
13	139	2.788253834944	93.421506810357
13	140	2.790707044307	93.414904777574
13	141	2.7927625445	93.409373052534
13	142	2.816883848591	93.344458234099
13	143	2.845847315522	93.266512274379
13	144	2.888253834944	93.1523886143
13	145	2.890707044307	93.145786581517
13	146	2.8927625445	93.140254856477
13	147	2.916883848591	93.075340038042
13	148	2.945847315522	92.997394078322
13	149	2.988253834944	92.883270418242
13	150	2.990707044307	92.876668385459
13	151	2.9927625445	92.87113666042
13	152	3.016883848591	92.806221841985
13	153	3.045847315522	92.728275882264
13	154	3.088253834944	92.614152222185
13	155	3.090707044307	92.607550189402
13	156	3.0927625445	92.602018464363
13	157	3.116883848591	92.537103645928
13	158	3.145847315522	92.459157686207
13	159	3.188253834944	92.345034026128
13	160	3.190707044307	92.338431993345
13	161	3.1927625445	92.332900268305
13	162	3.216883848591	92.26798544987
13	163	3.245847315522	92.19003949015
13	164	3.288253834944	92.075915830071
13	165	3.290707044307	92.069313797288
13	166	3.2927625445	92.063782072248
13	167	3.316883848591	91.998867253813
13	168	3.345847315522	91.920921294093
13	169	3.388253834944	91.806797634014
13	170	3.390707044307	91.80019560123
13	171	3.3927625445	91.794663876191
13	172	3.416883848591	91.729749057756
13	173	3.445847315522	91.651803098035
13	174	3.488253834944	91.537679437956
13	175	3.490707044307	91.531077405173
13	176	3.4927625445	91.525545680134
13	177	3.516883848591	91.460630861699
13	178	3.539409705229	91.400009682668
13	179	3.545847315522	91.397398756559
13	180	3.588253834944	91.380199783076
13	181	3.5927625445	91.378371168581
13	182	3.616883848591	91.368588199474
13	183	3.639409705229	91.359452302062
13	184	3.645847315522	91.356841375954
13	185	3.688253834944	91.339642402471
13	186	3.6927625445	91.337813787976
13	187	3.716883848591	91.328030818868
13	188	3.739409705229	91.318894921457
13	189	3.745847315522	91.316283995349
13	190	3.788253834944	91.299085021865
13	191	3.7927625445	91.29725640737
13	192	3.816883848591	91.287473438263
13	193	3.839409705229	91.278337540852
13	194	3.845847315522	91.275726614743
13	195	3.888253834944	91.25852764126
13	196	3.8927625445	91.256699026765
13	197	3.916883848591	91.246916057658
13	198	3.939409705229	91.237780160246
13	199	3.945847315522	91.235169234138
13	200	3.988253834944	91.217970260654
13	201	3.9927625445	91.216141646159
13	202	4.016883848591	91.206358677052
13	203	4.029663438076	91.201175610305
13	204	4.039409705229	91.197222779641
13	205	4.045847315522	91.194611853532
13	206	4.088253834944	91.177412880049
13	207	4.098676292788	91.173185804153
13	208	4.116883848591	91.165801296447
13	209	4.129663438076	91.160618229699
13	210	4.139409705229	91.156665399035
13	211	4.188253834944	91.136855499443
13	212	4.198676292788	91.132628423547
13	213	4.216883848591	91.125243915841
13	214	4.229663438076	91.120060849094
13	215	4.239409705229	91.11610801843
13	216	4.288253834944	91.096298118838
13	217	4.298676292788	91.092071042942
13	218	4.316883848591	91.084686535236
13	219	4.329663438076	91.079503468489
13	220	4.339409705229	91.075550637825
13	221	4.388253834944	91.055740738233
13	222	4.398676292788	91.051513662336
13	223	4.416883848591	91.04412915463
13	224	4.429663438076	91.038946087883
13	225	4.439409705229	91.034993257219
13	226	4.455894000214	91.028307658962
13	227	4.498676292788	91.010956281731
13	228	4.516883848591	91.003571774025
13	229	4.529663438076	90.998388707278
13	230	4.539409705229	90.994435876614
13	231	4.555894000214	90.987750278356
13	232	4.598676292788	90.970398901126
13	233	4.616883848591	90.96301439342
13	234	4.629663438076	90.957831326672
13	235	4.639409705229	90.953878496008
13	236	4.655894000214	90.947192897751
13	237	4.698676292788	90.92984152052
13	238	4.716883848591	90.922457012814
13	239	4.729663438076	90.917273946067
13	240	4.739409705229	90.913321115403
13	241	4.755894000214	90.906635517146
13	242	4.798676292788	90.889284139915
13	243	4.816883848591	90.881899632209
13	244	4.829663438076	90.876716565461
13	245	4.839409705229	90.872763734797
13	246	4.855894000214	90.86607813654
13	247	4.898676292788	90.848726759309
13	248	4.916883848591	90.841342251603
13	249	4.929357361238	90.836283321604
13	250	4.929663438076	90.836159184856
13	251	4.939409705229	90.832206354192
13	252	4.955894000214	90.825520755935
13	253	4.998676292788	90.808169378704
13	254	5.029357361238	90.795725940999
13	255	5.029663438076	90.795601804251
13	256	5.039409705229	90.791648973587
13	257	5.055894000214	90.784963375329
13	258	5.098676292788	90.767611998098
13	259	5.129357361238	90.755168560393
13	260	5.129663438076	90.755044423645
13	261	5.139409705229	90.751091592981
13	262	5.155894000214	90.744405994724
13	263	5.198676292788	90.727054617493
13	264	5.229357361238	90.714611179788
13	265	5.229663438076	90.71448704304
13	266	5.239409705229	90.710534212376
13	267	5.255894000214	90.703848614118
13	268	5.298676292788	90.686497236888
13	269	5.329357361238	90.674053799182
13	270	5.329663438076	90.673929662434
13	271	5.339409705229	90.66997683177
13	272	5.355894000214	90.663291233513
13	273	5.398676292788	90.645939856282
13	274	5.429357361238	90.633496418577
13	275	5.429663438076	90.633372281829
13	276	5.439409705229	90.629419451165
13	277	5.455894000214	90.622733852908
13	278	5.498676292788	90.605382475677
13	279	5.529357361238	90.592939037972
13	280	5.529663438076	90.592814901223
13	281	5.539409705229	90.588862070559
13	282	5.555894000214	90.582176472302
13	283	5.581413358928	90.571826488861
13	284	5.598676292788	90.564825095071
13	285	5.614827169023	90.558274722726
13	286	5.629357361238	90.527829905437
13	287	5.655894000214	90.472228223566
13	288	5.681413358928	90.418758028412
13	289	5.698676292788	90.382587352935
13	290	5.714827169023	90.348746749263
13	291	5.729357361238	90.318301931975
13	292	5.755894000214	90.262700250104
13	293	5.781413358928	90.20923005495
13	294	5.798676292788	90.173059379473
13	295	5.814827169023	90.139218775801
13	296	5.829357361238	90.108773958513
13	297	5.855894000214	90.053172276642
13	298	5.881413358928	89.999702081488
13	299	5.898676292788	89.963531406011
13	300	5.914827169023	89.929690802339
13	301	5.929357361238	89.899245985051
13	302	5.955894000214	89.84364430318
13	303	5.981413358928	89.790174108026
13	304	5.998676292788	89.754003432549
13	305	6.014827169023	89.720162828877
13	306	6.029357361238	89.689718011589
13	307	6.055894000214	89.634116329717
13	308	6.081413358928	89.580646134563
13	309	6.098676292788	89.544475459086
13	310	6.114827169023	89.510634855415
13	311	6.129357361238	89.480190038127
13	312	6.155894000214	89.424588356255
13	313	6.181413358928	89.371118161101
13	314	6.198676292788	89.334947485624
13	315	6.214827169023	89.301106881953
13	316	6.229357361238	89.270662064665
13	317	6.255894000214	89.215060382793
13	318	6.281413358928	89.161590187639
13	319	6.298676292788	89.125419512162
13	320	6.314827169023	89.091578908491
13	321	6.329357361238	89.061134091202
13	322	6.355894000214	89.005532409331
13	323	6.381413358928	88.952062214177
14	0	0	0
14	1	0.1	0
14	6	0.2	0
14	11	0.3	0
14	16	0.4	0
14	21	0.5	0
14	26	0.6	0
14	31	0.7	0
14	36	0.8	0
14	41	0.9	0
14	46	1	0
14	51	1.1	0
14	56	1.127851431333	0
14	57	1.2	0
14	61	1.227851431333	0
14	62	1.3	0
14	66	1.327851431333	0
14	67	1.4	0
14	71	1.427851431333	0
14	72	1.490707044307	0
14	73	1.5	0
14	76	1.527851431333	0
14	77	1.590707044307	0
14	78	1.6	0
14	81	1.627851431333	0
14	82	1.690707044307	0
14	83	1.7	0
14	86	1.727851431333	0
14	87	1.790707044307	0
14	88	1.8	0
14	91	1.827851431333	0
14	92	1.890707044307	0
14	93	1.9	0
14	96	1.927851431333	0
14	97	1.990707044307	0
14	98	2	0
14	101	2.027851431333	0
14	102	2.090707044307	0
14	103	2.1	0
14	106	2.127851431333	0
14	107	2.188253834944	0
14	108	2.190707044307	0
14	109	2.2	0
14	111	2.227851431333	0
14	112	2.288253834944	0
14	113	2.290707044307	0
14	114	2.2927625445	0
14	115	2.3	0
14	117	2.388253834944	0
14	118	2.390707044307	0
14	119	2.3927625445	0
14	120	2.4	0
14	122	2.445847315522	0
14	123	2.488253834944	0
14	124	2.490707044307	0
14	125	2.4927625445	0
14	126	2.5	0
14	127	2.545847315522	0
14	128	2.588253834944	0
14	129	2.590707044307	0
14	130	2.5927625445	0
14	131	2.6	0
14	132	2.645847315522	0
14	133	2.688253834944	0
14	134	2.690707044307	0
14	135	2.6927625445	0
14	136	2.7	0
14	137	2.716883848591	0
14	138	2.745847315522	0
14	139	2.788253834944	0
14	140	2.790707044307	0
14	141	2.7927625445	0
14	142	2.816883848591	0
14	143	2.845847315522	0
14	144	2.888253834944	0
14	145	2.890707044307	0
14	146	2.8927625445	0
14	147	2.916883848591	0
14	148	2.945847315522	0
14	149	2.988253834944	0
14	150	2.990707044307	0
14	151	2.9927625445	0
14	152	3.016883848591	0
14	153	3.045847315522	0
14	154	3.088253834944	0
14	155	3.090707044307	0
14	156	3.0927625445	0
14	157	3.116883848591	0
14	158	3.145847315522	0
14	159	3.188253834944	0
14	160	3.190707044307	0
14	161	3.1927625445	0
14	162	3.216883848591	0
14	163	3.245847315522	0
14	164	3.288253834944	0
14	165	3.290707044307	0
14	166	3.2927625445	0
14	167	3.316883848591	0
14	168	3.345847315522	0
14	169	3.388253834944	0
14	170	3.390707044307	0
14	171	3.3927625445	0
14	172	3.416883848591	0
14	173	3.445847315522	0
14	174	3.488253834944	0
14	175	3.490707044307	0
14	176	3.4927625445	0
14	177	3.516883848591	0
14	178	3.539409705229	0
14	179	3.545847315522	0
14	180	3.588253834944	0
14	181	3.5927625445	0
14	182	3.616883848591	0
14	183	3.639409705229	0
14	184	3.645847315522	0
14	185	3.688253834944	0
14	186	3.6927625445	0
14	187	3.716883848591	0
14	188	3.739409705229	0
14	189	3.745847315522	0
14	190	3.788253834944	0
14	191	3.7927625445	0
14	192	3.816883848591	0
14	193	3.839409705229	0
14	194	3.845847315522	0
14	195	3.888253834944	0
14	196	3.8927625445	0
14	197	3.916883848591	0
14	198	3.939409705229	0
14	199	3.945847315522	0
14	200	3.988253834944	0
14	201	3.9927625445	0
14	202	4.016883848591	0
14	203	4.029663438076	0
14	204	4.039409705229	0
14	205	4.045847315522	0
14	206	4.088253834944	0
14	207	4.098676292788	0
14	208	4.116883848591	0
14	209	4.129663438076	0
14	210	4.139409705229	0
14	211	4.188253834944	0
14	212	4.198676292788	0
14	213	4.216883848591	0
14	214	4.229663438076	0
14	215	4.239409705229	0
14	216	4.288253834944	0
14	217	4.298676292788	0
14	218	4.316883848591	0
14	219	4.329663438076	0
14	220	4.339409705229	0
14	221	4.388253834944	0
14	222	4.398676292788	0
14	223	4.416883848591	0
14	224	4.429663438076	0
14	225	4.439409705229	0
14	226	4.455894000214	0
14	227	4.498676292788	0
14	228	4.516883848591	0
14	229	4.529663438076	0
14	230	4.539409705229	0
14	231	4.555894000214	0
14	232	4.598676292788	0
14	233	4.616883848591	0
14	234	4.629663438076	0
14	235	4.639409705229	0
14	236	4.655894000214	0
14	237	4.698676292788	0
14	238	4.716883848591	0
14	239	4.729663438076	0
14	240	4.739409705229	0
14	241	4.755894000214	0
14	242	4.798676292788	0
14	243	4.816883848591	0
14	244	4.829663438076	0
14	245	4.839409705229	0
14	246	4.855894000214	0
14	247	4.898676292788	0
14	248	4.916883848591	0
14	249	4.929357361238	0
14	250	4.929663438076	0
14	251	4.939409705229	0
14	252	4.955894000214	0
14	253	4.998676292788	0
14	254	5.029357361238	0
14	255	5.029663438076	0
14	256	5.039409705229	0
14	257	5.055894000214	0
14	258	5.098676292788	0
14	259	5.129357361238	0
14	260	5.129663438076	0
14	261	5.139409705229	0
14	262	5.155894000214	0
14	263	5.198676292788	0
14	264	5.229357361238	0
14	265	5.229663438076	0
14	266	5.239409705229	0
14	267	5.255894000214	0
14	268	5.298676292788	0
14	269	5.329357361238	0
14	270	5.329663438076	0
14	271	5.339409705229	0
14	272	5.355894000214	0
14	273	5.398676292788	0
14	274	5.429357361238	0
14	275	5.429663438076	0
14	276	5.439409705229	0
14	277	5.455894000214	0
14	278	5.498676292788	0
14	279	5.529357361238	0
14	280	5.529663438076	0
14	281	5.539409705229	0
14	282	5.555894000214	0
14	283	5.581413358928	0
14	284	5.598676292788	0
14	285	5.614827169023	0
14	286	5.629357361238	0
14	287	5.655894000214	0
14	288	5.681413358928	0
14	289	5.698676292788	0
14	290	5.714827169023	0
14	291	5.729357361238	0
14	292	5.755894000214	0
14	293	5.781413358928	0
14	294	5.798676292788	0
14	295	5.814827169023	0
14	296	5.829357361238	0
14	297	5.855894000214	0
14	298	5.881413358928	0
14	299	5.898676292788	0
14	300	5.914827169023	0
14	301	5.929357361238	0
14	302	5.955894000214	0
14	303	5.981413358928	0
14	304	5.998676292788	0
14	305	6.014827169023	0
14	306	6.029357361238	0
14	307	6.055894000214	0
14	308	6.081413358928	0
14	309	6.098676292788	0
14	310	6.114827169023	0
14	311	6.129357361238	0
14	312	6.155894000214	0
14	313	6.181413358928	0
14	314	6.198676292788	0
14	315	6.214827169023	0
14	316	6.229357361238	0
14	317	6.255894000214	0
14	318	6.281413358928	0
14	319	6.298676292788	0
14	320	6.314827169023	0
14	321	6.329357361238	0
14	322	6.355894000214	0
14	323	6.381413358928	0
15	0	0	0
15	0	0	0
15	0	0	2
16	0	0	0
17	0	0	1
18	0	0	31

